<?xml version="1.0" encoding="UTF-8"?>

<!-- generated on 2022-07-26 11:39:01.767633 by osmWebWizard.py v1_14_1+0000-f654d7b963e
<configuration>
    <allow-fringe.min-length value="1000.0"/>
    <end value="3600"/>
    <fringe-factor value="50.0"/>
    <fringe-start-attributes value="departSpeed=&quot;max&quot;"/>
    <lanes value="True"/>
    <min-distance value="300.0"/>
    <net-file value="C:\Users\Eddie\Documents\GitHub\SUMO_TPDT\maps\2022-07-26-11-36-50\osm.net.xml"/>
    <period value="0.14104269640274203"/>
    <route-file value="C:\Users\Eddie\Documents\GitHub\SUMO_TPDT\maps\2022-07-26-11-36-50\osm.passenger.rou.xml"/>
    <trip-attributes value="departLane=&quot;best&quot;"/>
    <output-trip-file value="C:\Users\Eddie\Documents\GitHub\SUMO_TPDT\maps\2022-07-26-11-36-50\osm.passenger.trips.xml"/>
    <prefix value="veh"/>
    <validate value="True"/>
    <vehicle-class value="passenger"/>
</configuration>
-->

<!-- generated on 2022-07-26 11:38:22 by Eclipse SUMO duarouter Version 1.14.1
<configuration xmlns:xsi="http://www.w3.org/2001/XMLSchema-instance" xsi:noNamespaceSchemaLocation="http://sumo.dlr.de/xsd/duarouterConfiguration.xsd">

    <input>
        <net-file value="C:\Users\Eddie\Documents\GitHub\SUMO_TPDT\maps\2022-07-26-11-36-50\osm.net.xml"/>
        <route-files value="C:\Users\Eddie\Documents\GitHub\SUMO_TPDT\maps\2022-07-26-11-36-50\osm.passenger.trips.xml"/>
    </input>

    <output>
        <output-file value="C:\Users\Eddie\Documents\GitHub\SUMO_TPDT\maps\2022-07-26-11-36-50\osm.passenger.trips.xml.tmp"/>
        <alternatives-output value="NUL"/>
        <write-trips value="true"/>
    </output>

    <time>
        <begin value="0"/>
        <end value="3600"/>
    </time>

    <report>
        <no-warnings value="true"/>
        <ignore-errors value="true"/>
        <no-step-log value="true"/>
    </report>

</configuration>
-->

<routes xmlns:xsi="http://www.w3.org/2001/XMLSchema-instance" xsi:noNamespaceSchemaLocation="http://sumo.dlr.de/xsd/routes_file.xsd">
    <vType id="veh_passenger" vClass="passenger" color="0,1,0" speedDev="0.1">
        <param key="has.driverstate.device" value="true"/>
    </vType>
	<vType id="CAV_passenger" vClass="passenger" color="0,0,1" minGap="1.0" speedFactor="1.0" speedDev="0" lcCooperative="1.0"/>
    <vType id="AV_passenger" vClass="passenger" color="1,0,0" minGap="1.0" speedFactor="1.0" speedDev="0" lcCooperative="0.0"/>
    <vType id="AV_passenger_conservative" vClass="passenger" color="1,0,0" minGap="1.0" speedFactor="1.0" speedDev="0" carFollowModel="ACC" lcCooperative="0.0"/>
    <trip id="veh1" type="veh_passenger" depart="0.14" departLane="best" from="-236815218#0" to="-300715903#0"/>
    <trip id="veh4" type="veh_passenger" depart="0.56" departLane="best" departSpeed="max" from="-526796856#10" to="-164757663#0"/>
    <trip id="veh5" type="veh_passenger" depart="0.71" departLane="best" from="-16872561" to="16868881#1"/>
    <trip id="veh6" type="veh_passenger" depart="0.85" departLane="best" departSpeed="max" from="-16857508" to="-198868659#0"/>
    <trip id="veh7" type="veh_passenger" depart="0.99" departLane="best" from="16870160#0" to="16870496#5"/>
    <trip id="veh8" type="veh_passenger" depart="1.13" departLane="best" from="-16872739" to="16871794#1"/>
    <trip id="veh9" type="veh_passenger" depart="1.27" departLane="best" departSpeed="max" from="300717682#0" to="-155457584#0"/>
    <trip id="veh10" type="veh_passenger" depart="1.41" departLane="best" departSpeed="max" from="300717682#0" to="236815241#3"/>
    <trip id="veh11" type="veh_passenger" depart="1.55" departLane="best" from="-304854332#7" to="-16873095#0"/>
    <trip id="veh12" type="veh_passenger" depart="1.69" departLane="best" departSpeed="max" from="5660708#0" to="-5655289#0"/>
    <trip id="veh13" type="veh_passenger" depart="1.83" departLane="best" departSpeed="max" from="-16868823#2" to="-16869534"/>
    <trip id="veh15" type="veh_passenger" depart="2.12" departLane="best" departSpeed="max" from="300717682#0" to="300715905"/>
    <trip id="veh16" type="veh_passenger" depart="2.26" departLane="best" departSpeed="max" from="109277040" to="703506108"/>
    <trip id="veh18" type="veh_passenger" depart="2.54" departLane="best" departSpeed="max" from="338542829" to="16872494"/>
    <trip id="veh19" type="veh_passenger" depart="2.68" departLane="best" from="477364074" to="16871629#2"/>
    <trip id="veh21" type="veh_passenger" depart="2.96" departLane="best" departSpeed="max" from="-16872814" to="-477375008#0"/>
    <trip id="veh22" type="veh_passenger" depart="3.10" departLane="best" departSpeed="max" from="-16868705#4" to="-300717682#0"/>
    <trip id="veh23" type="veh_passenger" depart="3.24" departLane="best" departSpeed="max" from="-16868881#1" to="-477357965#0"/>
    <trip id="veh25" type="veh_passenger" depart="3.53" departLane="best" departSpeed="max" from="-422223349" to="-254434737"/>
    <trip id="veh26" type="veh_passenger" depart="3.67" departLane="best" departSpeed="max" from="-198088480#4" to="5618576"/>
    <trip id="veh27" type="veh_passenger" depart="3.81" departLane="best" departSpeed="max" from="16869534" to="16872404#1"/>
    <trip id="veh28" type="veh_passenger" depart="3.95" departLane="best" departSpeed="max" from="-16871521#1" to="300715905"/>
    <trip id="veh29" type="veh_passenger" depart="4.09" departLane="best" departSpeed="max" from="-16871231#4" to="-755074600#0"/>
    <trip id="veh30" type="veh_passenger" depart="4.23" departLane="best" from="855355549#0" to="16873122"/>
    <trip id="veh31" type="veh_passenger" depart="4.37" departLane="best" departSpeed="max" from="157101862#0" to="200690227"/>
    <trip id="veh33" type="veh_passenger" depart="4.65" departLane="best" from="-16872882" to="-168044119"/>
    <trip id="veh34" type="veh_passenger" depart="4.80" departLane="best" departSpeed="max" from="-300717663#1" to="-477219552"/>
    <trip id="veh35" type="veh_passenger" depart="4.94" departLane="best" departSpeed="max" from="-16872474#3" to="5646977#2"/>
    <trip id="veh36" type="veh_passenger" depart="5.08" departLane="best" departSpeed="max" from="477374985#0" to="-54453238#0"/>
    <trip id="veh37" type="veh_passenger" depart="5.22" departLane="best" from="16870901" to="108701150#1-AddedOnRampEdge"/>
    <trip id="veh38" type="veh_passenger" depart="5.36" departLane="best" departSpeed="max" from="54453238#0" to="16863773#2"/>
    <trip id="veh39" type="veh_passenger" depart="5.50" departLane="best" from="-198088474#0" to="-314053296#2"/>
    <trip id="veh40" type="veh_passenger" depart="5.64" departLane="best" departSpeed="max" from="157483695#0" to="-415300921#1"/>
    <trip id="veh41" type="veh_passenger" depart="5.78" departLane="best" departSpeed="max" from="16856508#0" to="540938167#0-AddedOnRampEdge"/>
    <trip id="veh42" type="veh_passenger" depart="5.92" departLane="best" from="-477221643#11" to="-300715903#0"/>
    <trip id="veh46" type="veh_passenger" depart="6.49" departLane="best" departSpeed="max" from="300715903#0" to="16852450"/>
    <trip id="veh47" type="veh_passenger" depart="6.63" departLane="best" departSpeed="max" from="-16867338" to="-757849565"/>
    <trip id="veh48" type="veh_passenger" depart="6.77" departLane="best" departSpeed="max" from="988703085" to="16869533#2"/>
    <trip id="veh49" type="veh_passenger" depart="6.91" departLane="best" departSpeed="max" from="667927775#0" to="477374991#3"/>
    <trip id="veh50" type="veh_passenger" depart="7.05" departLane="best" departSpeed="max" from="-165175485#3" to="300715897"/>
    <trip id="veh51" type="veh_passenger" depart="7.19" departLane="best" from="16872454#1" to="16870092#1"/>
    <trip id="veh52" type="veh_passenger" depart="7.33" departLane="best" departSpeed="max" from="-198088480#4" to="16873199#1"/>
    <trip id="veh54" type="veh_passenger" depart="7.62" departLane="best" departSpeed="max" from="-5589607#1" to="5678620"/>
    <trip id="veh56" type="veh_passenger" depart="7.90" departLane="best" departSpeed="max" from="-758585451" to="-184497366"/>
    <trip id="veh57" type="veh_passenger" depart="8.04" departLane="best" from="540938177#2" to="479644372#1"/>
    <trip id="veh58" type="veh_passenger" depart="8.18" departLane="best" from="-283835428" to="16873122"/>
    <trip id="veh59" type="veh_passenger" depart="8.32" departLane="best" departSpeed="max" from="16868211" to="-16873095#0"/>
    <trip id="veh60" type="veh_passenger" depart="8.46" departLane="best" departSpeed="max" from="239791186#0" to="16870341#5"/>
    <trip id="veh61" type="veh_passenger" depart="8.60" departLane="best" from="283835431" to="16869533#2"/>
    <trip id="veh63" type="veh_passenger" depart="8.89" departLane="best" departSpeed="max" from="-16852450" to="560096846#1"/>
    <trip id="veh64" type="veh_passenger" depart="9.03" departLane="best" from="477374989#1" to="477221642"/>
    <trip id="veh65" type="veh_passenger" depart="9.17" departLane="best" from="-300715903#8" to="-16868211"/>
    <trip id="veh66" type="veh_passenger" depart="9.31" departLane="best" from="477374985#2" to="5671696#5"/>
    <trip id="veh67" type="veh_passenger" depart="9.45" departLane="best" departSpeed="max" from="-16867689" to="304854332#7"/>
    <trip id="veh69" type="veh_passenger" depart="9.73" departLane="best" from="-5681821#4" to="16870901"/>
    <trip id="veh70" type="veh_passenger" depart="9.87" departLane="best" from="-198088474#1" to="479644373"/>
    <trip id="veh71" type="veh_passenger" depart="10.01" departLane="best" departSpeed="max" from="-526796856#10" to="-254434754#2"/>
    <trip id="veh72" type="veh_passenger" depart="10.16" departLane="best" departSpeed="max" from="109277040" to="300715905"/>
    <trip id="veh73" type="veh_passenger" depart="10.30" departLane="best" departSpeed="max" from="-16872239" to="-54453238#0"/>
    <trip id="veh74" type="veh_passenger" depart="10.44" departLane="best" departSpeed="max" from="988703085" to="181550628#1"/>
    <trip id="veh75" type="veh_passenger" depart="10.58" departLane="best" departSpeed="max" from="-5567338#5" to="16869476"/>
    <trip id="veh76" type="veh_passenger" depart="10.72" departLane="best" departSpeed="max" from="-16869523#4" to="-300716728"/>
    <trip id="veh77" type="veh_passenger" depart="10.86" departLane="best" from="-304854324#5" to="16871658#1"/>
    <trip id="veh78" type="veh_passenger" depart="11.00" departLane="best" departSpeed="max" from="-16873122" to="-300715903#0"/>
    <trip id="veh79" type="veh_passenger" depart="11.14" departLane="best" departSpeed="max" from="-16867689" to="16872814"/>
    <trip id="veh80" type="veh_passenger" depart="11.28" departLane="best" from="-16872818" to="5567338#5"/>
    <trip id="veh81" type="veh_passenger" depart="11.42" departLane="best" from="477362142#8" to="-16868823#0"/>
    <trip id="veh82" type="veh_passenger" depart="11.57" departLane="best" from="-180227988#0" to="198088473#2"/>
    <trip id="veh83" type="veh_passenger" depart="11.71" departLane="best" departSpeed="max" from="-16872494" to="-16872454#10"/>
    <trip id="veh84" type="veh_passenger" depart="11.85" departLane="best" from="5630648#1" to="16871521#1"/>
    <trip id="veh85" type="veh_passenger" depart="11.99" departLane="best" departSpeed="max" from="-5678620" to="370988700#1"/>
    <trip id="veh88" type="veh_passenger" depart="12.41" departLane="best" departSpeed="max" from="-526796856#10" to="16867338"/>
    <trip id="veh89" type="veh_passenger" depart="12.55" departLane="best" from="185557395" to="198088479#1"/>
    <trip id="veh90" type="veh_passenger" depart="12.69" departLane="best" departSpeed="max" from="755074600#0" to="-16869534"/>
    <trip id="veh91" type="veh_passenger" depart="12.83" departLane="best" from="-477221643#7" to="-5657811#0"/>
    <trip id="veh92" type="veh_passenger" depart="12.98" departLane="best" from="477364074" to="-338536844#0"/>
    <trip id="veh93" type="veh_passenger" depart="13.12" departLane="best" departSpeed="max" from="-16872035#1" to="16862524"/>
    <trip id="veh94" type="veh_passenger" depart="13.26" departLane="best" departSpeed="max" from="-526796856#10" to="-477357965#10"/>
    <trip id="veh95" type="veh_passenger" depart="13.40" departLane="best" departSpeed="max" from="-189163529" to="560096846#1"/>
    <trip id="veh96" type="veh_passenger" depart="13.54" departLane="best" departSpeed="max" from="-5572808" to="477374991#3"/>
    <trip id="veh98" type="veh_passenger" depart="13.82" departLane="best" departSpeed="max" from="988703085" to="477221643#11"/>
    <trip id="veh99" type="veh_passenger" depart="13.96" departLane="best" departSpeed="max" from="667927775#0" to="560096846#1"/>
    <trip id="veh100" type="veh_passenger" depart="14.10" departLane="best" from="477221643#10" to="-180773015#0"/>
    <trip id="veh101" type="veh_passenger" depart="14.25" departLane="best" departSpeed="max" from="-649360095" to="-283835423#0"/>
    <trip id="veh102" type="veh_passenger" depart="14.39" departLane="best" from="-477221643#3" to="-16868211"/>
    <trip id="veh104" type="veh_passenger" depart="14.67" departLane="best" from="-198088475#1" to="370988697#2-AddedOffRampEdge"/>
    <trip id="veh105" type="veh_passenger" depart="14.81" departLane="best" departSpeed="max" from="-5618576" to="16852450"/>
    <trip id="veh106" type="veh_passenger" depart="14.95" departLane="best" from="5660708#1" to="875330658"/>
    <trip id="veh107" type="veh_passenger" depart="15.09" departLane="best" departSpeed="max" from="157101862#0" to="29026592#1-AddedOnRampEdge"/>
    <trip id="veh108" type="veh_passenger" depart="15.23" departLane="best" departSpeed="max" from="-16870918#2" to="-479644371"/>
    <trip id="veh109" type="veh_passenger" depart="15.37" departLane="best" departSpeed="max" from="667927775#0" to="16871629#2"/>
    <trip id="veh110" type="veh_passenger" depart="15.51" departLane="best" departSpeed="max" from="154024118#0" to="300717676"/>
    <trip id="veh111" type="veh_passenger" depart="15.66" departLane="best" departSpeed="max" from="-16863773#2" to="16871640"/>
    <trip id="veh112" type="veh_passenger" depart="15.80" departLane="best" departSpeed="max" from="-758585451" to="477374978#3"/>
    <trip id="veh113" type="veh_passenger" depart="15.94" departLane="best" from="-16871030#11" to="643629563#4"/>
    <trip id="veh114" type="veh_passenger" depart="16.08" departLane="best" departSpeed="max" from="-16868705#4" to="-189286573#1"/>
    <trip id="veh116" type="veh_passenger" depart="16.36" departLane="best" departSpeed="max" from="-16873122" to="-16871889#0"/>
    <trip id="veh117" type="veh_passenger" depart="16.50" departLane="best" departSpeed="max" from="479644371" to="-304892370"/>
    <trip id="veh119" type="veh_passenger" depart="16.78" departLane="best" departSpeed="max" from="-479644373" to="16871640"/>
    <trip id="veh120" type="veh_passenger" depart="16.93" departLane="best" departSpeed="max" from="-875330658" to="5618576"/>
    <trip id="veh121" type="veh_passenger" depart="17.07" departLane="best" from="-16872305" to="29026588#1-AddedOnRampEdge"/>
    <trip id="veh122" type="veh_passenger" depart="17.21" departLane="best" departSpeed="max" from="-180227994#1" to="108701150#1-AddedOnRampEdge"/>
    <trip id="veh123" type="veh_passenger" depart="17.35" departLane="best" departSpeed="max" from="16871889#0" to="-479644372#0"/>
    <trip id="veh124" type="veh_passenger" depart="17.49" departLane="best" departSpeed="max" from="-300717663#1" to="300717681#6"/>
    <trip id="veh125" type="veh_passenger" depart="17.63" departLane="best" from="-16868402#2" to="16863773#2"/>
    <trip id="veh126" type="veh_passenger" depart="17.77" departLane="best" departSpeed="max" from="988703085" to="875330658"/>
    <trip id="veh127" type="veh_passenger" depart="17.91" departLane="best" from="-16868484#2" to="-283835419#0"/>
    <trip id="veh128" type="veh_passenger" depart="18.05" departLane="best" from="-198088475#1" to="560096850#1"/>
    <trip id="veh129" type="veh_passenger" depart="18.19" departLane="best" from="477374995#1" to="526474606-AddedOffRampEdge"/>
    <trip id="veh130" type="veh_passenger" depart="18.34" departLane="best" departSpeed="max" from="-422223349" to="-16873199#2"/>
    <trip id="veh131" type="veh_passenger" depart="18.48" departLane="best" departSpeed="max" from="338542829" to="254434743#6"/>
    <trip id="veh132" type="veh_passenger" depart="18.62" departLane="best" from="16868402#4" to="855355549#12"/>
    <trip id="veh134" type="veh_passenger" depart="18.90" departLane="best" from="304854324#6" to="-479644372#0"/>
    <trip id="veh135" type="veh_passenger" depart="19.04" departLane="best" departSpeed="max" from="16871656#0" to="5618576"/>
    <trip id="veh136" type="veh_passenger" depart="19.18" departLane="best" from="-16870341#0" to="-16871656#0"/>
    <trip id="veh138" type="veh_passenger" depart="19.46" departLane="best" from="-198868659#0" to="16872239"/>
    <trip id="veh139" type="veh_passenger" depart="19.60" departLane="best" departSpeed="max" from="180773015#0" to="-236815222#1"/>
    <trip id="veh141" type="veh_passenger" depart="19.89" departLane="best" from="-667927775#2" to="5567338#5"/>
    <trip id="veh142" type="veh_passenger" depart="20.03" departLane="best" from="398061503#0" to="-16869476"/>
    <trip id="veh143" type="veh_passenger" depart="20.17" departLane="best" departSpeed="max" from="-526796856#10" to="-477221663#1"/>
    <trip id="veh144" type="veh_passenger" depart="20.31" departLane="best" departSpeed="max" from="-154024118#1" to="338542820#2"/>
    <trip id="veh148" type="veh_passenger" depart="20.87" departLane="best" departSpeed="max" from="-16868705#4" to="526796856#10"/>
    <trip id="veh149" type="veh_passenger" depart="21.02" departLane="best" from="526477503" to="16870499#3"/>
    <trip id="veh150" type="veh_passenger" depart="21.16" departLane="best" departSpeed="max" from="338542829" to="16871640"/>
    <trip id="veh152" type="veh_passenger" depart="21.44" departLane="best" departSpeed="max" from="-300715905" to="540938167#3"/>
    <trip id="veh153" type="veh_passenger" depart="21.58" departLane="best" departSpeed="max" from="300715903#0" to="477374991#3"/>
    <trip id="veh154" type="veh_passenger" depart="21.72" departLane="best" departSpeed="max" from="479644372#0" to="-254434743#0"/>
    <trip id="veh155" type="veh_passenger" depart="21.86" departLane="best" departSpeed="max" from="-189163529" to="-16870499#0"/>
    <trip id="veh156" type="veh_passenger" depart="22.00" departLane="best" from="29026587#1" to="526796856#10"/>
    <trip id="veh157" type="veh_passenger" depart="22.14" departLane="best" from="-477357965#11" to="16872494"/>
    <trip id="veh158" type="veh_passenger" depart="22.28" departLane="best" departSpeed="max" from="-16870918#2" to="560096846#1"/>
    <trip id="veh159" type="veh_passenger" depart="22.43" departLane="best" from="477374975#3" to="757849566"/>
    <trip id="veh160" type="veh_passenger" depart="22.57" departLane="best" departSpeed="max" from="304854324#0" to="526796856#0"/>
    <trip id="veh161" type="veh_passenger" depart="22.71" departLane="best" from="-16857173" to="300717663#1"/>
    <trip id="veh162" type="veh_passenger" depart="22.85" departLane="best" departSpeed="max" from="-300717682#1" to="560096846#1"/>
    <trip id="veh163" type="veh_passenger" depart="22.99" departLane="best" departSpeed="max" from="300716728" to="477374991#3"/>
    <trip id="veh164" type="veh_passenger" depart="23.13" departLane="best" departSpeed="max" from="304854324#0" to="-477219552"/>
    <trip id="veh165" type="veh_passenger" depart="23.27" departLane="best" departSpeed="max" from="29026608" to="-16871030#7"/>
    <trip id="veh166" type="veh_passenger" depart="23.41" departLane="best" from="-16872770#6" to="422223349"/>
    <trip id="veh167" type="veh_passenger" depart="23.55" departLane="best" departSpeed="max" from="-5618576" to="-526796856#3"/>
    <trip id="veh168" type="veh_passenger" depart="23.70" departLane="best" departSpeed="max" from="300715903#0" to="-300716728"/>
    <trip id="veh169" type="veh_passenger" depart="23.84" departLane="best" from="-16856508#4" to="-198088476#1"/>
    <trip id="veh170" type="veh_passenger" depart="23.98" departLane="best" departSpeed="max" from="-300717676" to="477374991#3"/>
    <trip id="veh171" type="veh_passenger" depart="24.12" departLane="best" from="643629563#3" to="-477357965#12"/>
    <trip id="veh172" type="veh_passenger" depart="24.26" departLane="best" from="16869453#1" to="154024118#1"/>
    <trip id="veh173" type="veh_passenger" depart="24.40" departLane="best" departSpeed="max" from="703506109" to="16870092#1"/>
    <trip id="veh174" type="veh_passenger" depart="24.54" departLane="best" departSpeed="max" from="5655289#0" to="-16871656#0"/>
    <trip id="veh175" type="veh_passenger" depart="24.68" departLane="best" departSpeed="max" from="667927775#0" to="-184497366"/>
    <trip id="veh176" type="veh_passenger" depart="24.82" departLane="best" departSpeed="max" from="5681821#0" to="-477219552"/>
    <trip id="veh178" type="veh_passenger" depart="25.11" departLane="best" from="184498025#0" to="-54453238#0"/>
    <trip id="veh180" type="veh_passenger" depart="25.39" departLane="best" departSpeed="max" from="-477219541" to="16871629#2"/>
    <trip id="veh181" type="veh_passenger" depart="25.53" departLane="best" departSpeed="max" from="-189286556#2" to="283835419#1"/>
    <trip id="veh182" type="veh_passenger" depart="25.67" departLane="best" departSpeed="max" from="-154024118#1" to="560096846#1"/>
    <trip id="veh184" type="veh_passenger" depart="25.95" departLane="best" from="198088474#1" to="198088473#2"/>
    <trip id="veh185" type="veh_passenger" depart="26.09" departLane="best" departSpeed="max" from="-398061503#4" to="-16868712#2"/>
    <trip id="veh186" type="veh_passenger" depart="26.23" departLane="best" departSpeed="max" from="16871656#0" to="-5640403#4"/>
    <trip id="veh187" type="veh_passenger" depart="26.37" departLane="best" departSpeed="max" from="-300717663#1" to="477362163"/>
    <trip id="veh188" type="veh_passenger" depart="26.52" departLane="best" departSpeed="max" from="180773015#0" to="-479644372#0"/>
    <trip id="veh189" type="veh_passenger" depart="26.66" departLane="best" departSpeed="max" from="-300715905" to="157483857#1-AddedOffRampEdge"/>
    <trip id="veh190" type="veh_passenger" depart="26.80" departLane="best" from="-477221643#7" to="-479644371"/>
    <trip id="veh191" type="veh_passenger" depart="26.94" departLane="best" departSpeed="max" from="-16869533#2" to="16852450"/>
    <trip id="veh192" type="veh_passenger" depart="27.08" departLane="best" departSpeed="max" from="5655289#0" to="198088479#1"/>
    <trip id="veh193" type="veh_passenger" depart="27.22" departLane="best" from="526474606-AddedOffRampEdge" to="16872474#3"/>
    <trip id="veh194" type="veh_passenger" depart="27.36" departLane="best" departSpeed="max" from="-300715897" to="16870848#2"/>
    <trip id="veh195" type="veh_passenger" depart="27.50" departLane="best" from="-109277003#2" to="-477375008#0"/>
    <trip id="veh196" type="veh_passenger" depart="27.64" departLane="best" departSpeed="max" from="-526796858" to="16871629#2"/>
    <trip id="veh197" type="veh_passenger" depart="27.79" departLane="best" from="16870799" to="16867338"/>
    <trip id="veh198" type="veh_passenger" depart="27.93" departLane="best" departSpeed="max" from="-5567338#5" to="-283835422#2"/>
    <trip id="veh199" type="veh_passenger" depart="28.07" departLane="best" departSpeed="max" from="-5678620" to="540938747"/>
    <trip id="veh200" type="veh_passenger" depart="28.21" departLane="best" departSpeed="max" from="300715903#0" to="-180773015#0"/>
    <trip id="veh201" type="veh_passenger" depart="28.35" departLane="best" departSpeed="max" from="-16868744" to="16869124#3"/>
    <trip id="veh202" type="veh_passenger" depart="28.49" departLane="best" from="16868946#2" to="-5655289#0"/>
    <trip id="veh203" type="veh_passenger" depart="28.63" departLane="best" from="304854332#1" to="300717677"/>
    <trip id="veh204" type="veh_passenger" depart="28.77" departLane="best" departSpeed="max" from="16871889#0" to="-300716728"/>
    <trip id="veh205" type="veh_passenger" depart="28.91" departLane="best" departSpeed="max" from="-16872239" to="-157483695#0"/>
    <trip id="veh206" type="veh_passenger" depart="29.05" departLane="best" from="-182573241#2" to="16868402#2"/>
    <trip id="veh207" type="veh_passenger" depart="29.20" departLane="best" from="477221643#14" to="-16868823#0"/>
    <trip id="veh208" type="veh_passenger" depart="29.34" departLane="best" departSpeed="max" from="-479644373" to="16872814"/>
    <trip id="veh209" type="veh_passenger" depart="29.48" departLane="best" departSpeed="max" from="-16872215" to="236815233#0"/>
    <trip id="veh210" type="veh_passenger" depart="29.62" departLane="best" departSpeed="max" from="-703506108" to="-304854324#9"/>
    <trip id="veh211" type="veh_passenger" depart="29.76" departLane="best" from="16870910#4" to="-154024118#0"/>
    <trip id="veh212" type="veh_passenger" depart="29.90" departLane="best" from="200690246#6" to="338542820#1"/>
    <trip id="veh214" type="veh_passenger" depart="30.18" departLane="best" departSpeed="max" from="-16871629#2" to="643629563#4"/>
    <trip id="veh216" type="veh_passenger" depart="30.47" departLane="best" departSpeed="max" from="-189163529" to="477362174"/>
    <trip id="veh217" type="veh_passenger" depart="30.61" departLane="best" departSpeed="max" from="-5618576" to="370988831#2-AddedOnRampEdge"/>
    <trip id="veh218" type="veh_passenger" depart="30.75" departLane="best" from="16871794#0" to="855355549#12"/>
    <trip id="veh220" type="veh_passenger" depart="31.03" departLane="best" departSpeed="max" from="479644371" to="16872474#3"/>
    <trip id="veh221" type="veh_passenger" depart="31.17" departLane="best" departSpeed="max" from="180773015#0" to="16868881#1"/>
    <trip id="veh222" type="veh_passenger" depart="31.31" departLane="best" departSpeed="max" from="338542829" to="16870848#2"/>
    <trip id="veh223" type="veh_passenger" depart="31.45" departLane="best" departSpeed="max" from="479644372#0" to="300717672#1"/>
    <trip id="veh224" type="veh_passenger" depart="31.59" departLane="best" departSpeed="max" from="-5678620" to="-338542829"/>
    <trip id="veh225" type="veh_passenger" depart="31.73" departLane="best" departSpeed="max" from="-189163529" to="16873122"/>
    <trip id="veh226" type="veh_passenger" depart="31.88" departLane="best" departSpeed="max" from="239791186#0" to="16869523#4"/>
    <trip id="veh228" type="veh_passenger" depart="32.16" departLane="best" departSpeed="max" from="-16868705#4" to="-477375008#0"/>
    <trip id="veh229" type="veh_passenger" depart="32.30" departLane="best" departSpeed="max" from="-198088480#4" to="-5591827#0"/>
    <trip id="veh230" type="veh_passenger" depart="32.44" departLane="best" departSpeed="max" from="109277040" to="-16872770#6"/>
    <trip id="veh231" type="veh_passenger" depart="32.58" departLane="best" departSpeed="max" from="-16873122" to="236815220#1"/>
    <trip id="veh232" type="veh_passenger" depart="32.72" departLane="best" from="16873095#2" to="-16868494"/>
    <trip id="veh233" type="veh_passenger" depart="32.86" departLane="best" from="-477357965#2" to="16870341#5"/>
    <trip id="veh234" type="veh_passenger" depart="33.00" departLane="best" departSpeed="max" from="-479644373" to="-236815246#0"/>
    <trip id="veh235" type="veh_passenger" depart="33.15" departLane="best" from="-479644375#4" to="5567338#5"/>
    <trip id="veh236" type="veh_passenger" depart="33.29" departLane="best" departSpeed="max" from="16856508#0" to="236815222#3"/>
    <trip id="veh237" type="veh_passenger" depart="33.43" departLane="best" from="477357965#5" to="338542816"/>
    <trip id="veh238" type="veh_passenger" depart="33.57" departLane="best" departSpeed="max" from="-477219541" to="-154024118#0"/>
    <trip id="veh239" type="veh_passenger" depart="33.71" departLane="best" departSpeed="max" from="-338542820#2" to="300717682#1"/>
    <trip id="veh240" type="veh_passenger" depart="33.85" departLane="best" from="477221663#0" to="5678620"/>
    <trip id="veh241" type="veh_passenger" depart="33.99" departLane="best" departSpeed="max" from="-479644373" to="300717676"/>
    <trip id="veh242" type="veh_passenger" depart="34.13" departLane="best" departSpeed="max" from="154024118#0" to="16872239"/>
    <trip id="veh243" type="veh_passenger" depart="34.27" departLane="best" from="-16872742" to="-300715903#0"/>
    <trip id="veh244" type="veh_passenger" depart="34.41" departLane="best" from="-534799465" to="-164757663#0"/>
    <trip id="veh245" type="veh_passenger" depart="34.56" departLane="best" departSpeed="max" from="-300717682#1" to="198088480#4"/>
    <trip id="veh246" type="veh_passenger" depart="34.70" departLane="best" from="-477221658#1" to="-180227980#0"/>
    <trip id="veh248" type="veh_passenger" depart="34.98" departLane="best" departSpeed="max" from="16868823#0" to="-164757663#0"/>
    <trip id="veh249" type="veh_passenger" depart="35.12" departLane="best" departSpeed="max" from="-477221642" to="16871231#4"/>
    <trip id="veh250" type="veh_passenger" depart="35.26" departLane="best" departSpeed="max" from="-16857508" to="180227980#0"/>
    <trip id="veh251" type="veh_passenger" depart="35.40" departLane="best" departSpeed="max" from="-16870341#5" to="16866540#1"/>
    <trip id="veh252" type="veh_passenger" depart="35.54" departLane="best" departSpeed="max" from="-16862524" to="-755074600#0"/>
    <trip id="veh254" type="veh_passenger" depart="35.82" departLane="best" departSpeed="max" from="239791186#0" to="-755074600#0"/>
    <trip id="veh255" type="veh_passenger" depart="35.97" departLane="best" from="229615339#1" to="477221642"/>