<?xml version="1.0" encoding="UTF-8"?>

<!-- generated on 2022-07-26 11:37:09 by Eclipse SUMO polyconvert Version 1.14.1
<configuration xmlns:xsi="http://www.w3.org/2001/XMLSchema-instance" xsi:noNamespaceSchemaLocation="http://sumo.dlr.de/xsd/polyconvertConfiguration.xsd">

    <input>
        <net-file value="osm.net.xml"/>
        <osm-files value="osm_bbox.osm.xml.gz"/>
        <osm.keep-full-type value="true"/>
        <type-file value="C:\Program%20Files%20(x86)\Eclipse\Sumo\data\typemap\osmPolyconvert.typ.xml"/>
    </input>

    <output>
        <output-file value="osm.poly.xml"/>
    </output>

    <report>
        <verbose value="true"/>
    </report>

</configuration>
-->

<additional xmlns:xsi="http://www.w3.org/2001/XMLSchema-instance" xsi:noNamespaceSchemaLocation="http://sumo.dlr.de/xsd/additional_file.xsd">
    <location netOffset="12755930.49,-3945642.54" convBoundary="-25382.49,-67826.52,211249.33,120980.52" origBoundary="-114.816488,32.868149,-112.690788,34.281200" projParameter="+proj=merc +a=6378137 +b=6378137 +lat_ts=0.0 +lon_0=0.0 +x_0=0.0 +y_0=0 +k=1.0 +units=m +nadgrids=@null +wktext +no_defs"/>

    <poly id="1016567155" type="landuse.cemetery" color="194,194,130" fill="1" layer="-3.00" shape="110931.945715,39607.472364 110957.771837,39594.550578 110924.275802,39527.667856 110898.460813,39540.589568 110931.945715,39607.472364"/>
    <poly id="1018842682" type="building.yes" color="255,230,230" fill="1" layer="-1.00" shape="41233.721599,36517.491845 41230.760500,36513.520062 41239.532476,36506.365509 41242.738477,36510.751851 41233.721599,36517.491845"/>
    <poly id="1018846674" type="building.yes" color="255,230,230" fill="1" layer="-1.00" shape="37642.354451,37839.529588 37618.420760,37849.734369 37615.971731,37844.210679 37613.121952,37845.106774 37605.507699,37837.938018 37589.410901,37802.014057 37618.754719,37788.826808 37642.354451,37839.529588"/>
    <poly id="1018846675" type="building.yes" color="255,230,230" fill="1" layer="-1.00" shape="37661.913285,37804.996571 37647.241376,37811.844318 37631.701175,37778.421464 37648.087404,37771.760979 37661.913285,37804.996571"/>
    <poly id="1018846676" type="building.yes" color="255,230,230" fill="1" layer="-1.00" shape="37596.446293,37724.669588 37573.859568,37727.023484 37571.254692,37701.652252 37593.641041,37699.512351 37596.446293,37724.669588"/>
    <poly id="1018846677" type="building.yes" color="255,230,230" fill="1" layer="-1.00" shape="37559.900104,37722.730298 37522.340908,37726.408261 37519.980934,37704.313755 37557.417679,37700.127573 37559.900104,37722.730298"/>
    <poly id="1018846679" type="building.yes" color="255,230,230" fill="1" layer="-1.00" shape="37655.634866,37680.239885 37635.853392,37691.273736 37632.458148,37686.686328 37633.259648,37685.910615 37653.085650,37675.411743 37655.634866,37680.239885"/>
    <poly id="1078581585" type="amenity.fuel" color="237,199,199" fill="1" layer="-1.00" shape="43369.875835,38542.155901 43369.374898,38579.005076 43393.464435,38579.339461 43393.965373,38542.490285 43369.875835,38542.155901"/>
    <poly id="108701135" type="amenity.parking" color="184,184,179" fill="1" layer="-1.00" shape="104956.771859,31508.638712 105011.708028,31487.144289 105017.997579,31493.119414 104995.678022,31502.944291 104965.120821,31514.359872 104956.771859,31508.638712"/>
    <poly id="108701137" type="amenity.parking" color="184,184,179" fill="1" layer="-1.00" shape="105067.835315,31450.718820 105110.838035,31400.552113 105123.906943,31398.333180 105100.095704,31427.820959 105084.221544,31446.374505 105067.835315,31450.718820"/>
    <poly id="108701139" type="amenity.toilets" color="237,199,199" fill="1" layer="-1.00" shape="105015.081009,31433.796053 105029.140660,31441.642546 105040.061102,31422.046375 105026.001451,31414.213262 105015.081009,31433.796053"/>
    <poly id="108701139#1" type="building.yes" color="255,230,230" fill="1" layer="-1.00" shape="105015.081009,31433.796053 105029.140660,31441.642546 105040.061102,31422.046375 105026.001451,31414.213262 105015.081009,31433.796053"/>
    <poly id="108701141" type="amenity.parking" color="184,184,179" fill="1" layer="-1.00" shape="104891.082228,31388.013812 105063.916869,31357.242902 105048.777419,31364.594763 105030.632342,31375.288387 105014.379696,31392.264535 105002.023232,31399.482748 104957.328457,31408.558988 104882.911377,31420.201716 104849.337419,31426.524351 104891.082228,31388.013812"/>
    <poly id="108701142" type="amenity.parking" color="184,184,179" fill="1" layer="-1.00" shape="104971.699803,31108.538899 104990.802228,31112.722685 105003.347934,31121.076895 105018.877003,31132.425264 105020.235101,31114.072725 105002.913788,31103.539744 104980.093293,31093.915709 104964.920446,31091.777036 104971.699803,31108.538899"/>
    <poly id="108701152" type="amenity.parking" color="184,184,179" fill="1" layer="-1.00" shape="104856.083380,31239.480099 104976.597861,31210.768079 105005.340553,31187.122154 105025.845604,31167.432848 105001.466635,31173.982579 104885.616441,31206.236719 104856.083380,31239.480099"/>
    <poly id="108701155" type="amenity.parking" color="184,184,179" fill="1" layer="-1.00" shape="104882.722134,31096.602418 104957.361853,31106.747758 104950.615892,31089.772030 104896.492355,31082.153010 104876.955785,31080.655941 104882.722134,31096.602418"/>
    <poly id="108701156" type="amenity.toilets" color="237,199,199" fill="1" layer="-1.00" shape="104919.490962,31166.082801 104914.826675,31148.585682 104933.105336,31143.706811 104937.769622,31161.203923 104919.490962,31166.082801"/>
    <poly id="108701156#1" type="building.yes" color="255,230,230" fill="1" layer="-1.00" shape="104919.490962,31166.082801 104914.826675,31148.585682 104933.105336,31143.706811 104937.769622,31161.203923 104919.490962,31166.082801"/>
    <poly id="109277011" type="amenity.parking" color="184,184,179" fill="1" layer="-1.00" shape="169163.149085,18877.401883 169119.934859,18858.307735 168796.006273,18924.589934 168845.576842,18940.706553 169163.149085,18877.401883"/>
    <poly id="109277017" type="amenity.toilets" color="237,199,199" fill="1" layer="-1.00" shape="169018.366956,18844.514570 169013.624745,18821.882064 169027.962696,18818.877752 169032.704906,18841.510252 169018.366956,18844.514570"/>
    <poly id="109277017#1" type="building.toilets" color="255,230,230" fill="1" layer="-1.00" shape="169018.366956,18844.514570 169013.624745,18821.882064 169027.962696,18818.877752 169032.704906,18841.510252 169018.366956,18844.514570"/>
    <poly id="109277021" type="amenity.parking" color="184,184,179" fill="1" layer="-1.00" shape="169123.163124,19053.456756 169086.561276,19036.552167 169395.350411,18968.186310 169409.309875,18971.858294 169459.136479,18984.997330 169190.199722,19039.503124 169123.163124,19053.456756"/>
    <poly id="109277026" type="amenity.toilets" color="237,199,199" fill="1" layer="-1.00" shape="169348.295663,19065.621132 169340.158208,19055.312790 169352.536935,19045.551921 169360.663258,19055.846901 169348.295663,19065.621132"/>
    <poly id="109277026#1" type="building.toilets" color="255,230,230" fill="1" layer="-1.00" shape="169348.295663,19065.621132 169340.158208,19055.312790 169352.536935,19045.551921 169360.663258,19055.846901 169348.295663,19065.621132"/>
    <poly id="109277028" type="amenity.parking" color="184,184,179" fill="1" layer="-1.00" shape="168863.488148,18898.312014 169135.196761,18843.379605 169127.037043,18856.852309 168856.831243,18912.145302 168863.488148,18898.312014"/>
    <poly id="109277034" type="amenity.parking" color="184,184,179" fill="1" layer="-1.00" shape="169187.149568,19054.765327 169451.099212,18998.630430 169459.136479,18984.997330 169190.199722,19039.503124 169187.149568,19054.765327"/>
    <poly id="156569937" type="landuse.farmland" color="194,194,130" fill="1" layer="-3.00" shape="186715.716963,14997.598615 186716.908082,15031.035601 186730.077177,15031.075646 187630.607330,14789.810934 187644.333023,14783.243799 187650.277484,14773.072756 187680.133372,14528.823580 187685.510103,14515.689610 187695.016787,14501.394422 187709.955863,14580.198367 187749.552206,14759.217727 188253.373089,14623.191058 188253.373089,14496.589321 188249.977845,14457.054092 188240.237389,14426.128080 188228.470919,14397.497901 188149.667852,14397.497901 187695.940739,14402.182834 187701.317471,14220.606345 187701.762749,14134.851019 187703.143110,14014.661161 187704.100458,13939.357947 187704.367625,13654.352670 187705.914966,13474.549639 186714.069435,13468.864108 186705.753869,13618.944384 186706.210279,13924.596332 186715.605644,14403.397447 186715.716963,14997.598615"/>
    <poly id="156575681" type="landuse.farmland" color="194,194,130" fill="1" layer="-3.00" shape="186725.891564,15376.917204 186741.420633,15376.917204 187696.486205,15377.023992 188136.398568,15379.666999 188196.110343,15267.232959 188252.215367,15088.979926 188249.821998,14745.015672 188240.860779,14746.216973 188228.927329,14749.794181 188209.813773,14757.562599 188183.542373,14772.485452 187767.341061,14882.658876 187749.396359,14896.100266 187735.102936,14999.106948 187696.040927,15215.868466 187646.370170,14918.097728 186727.683808,15160.339541 186726.782120,15268.634540 186725.891564,15376.917204"/>
    <poly id="156992782" type="landuse.farmland" color="194,194,130" fill="1" layer="-3.00" shape="186346.125122,15447.611168 186655.938396,15444.634430 186651.841839,15874.547291 186721.884063,15874.186866 186725.858169,15499.243663 187251.954082,15488.497998 187263.509045,15494.197872 187270.678020,15507.933643 187273.661383,15520.468050 187276.644745,15871.290113 187286.596708,15871.236717 187438.280646,15865.870384 187579.801114,15858.701930 187597.723552,15858.701930 187616.825977,15861.678774 187627.011711,15872.758513 187634.770679,15888.283515 187635.939534,15905.276942 187632.978435,15993.982234 187628.770558,16059.940968 187628.180565,16294.036771 187627.779815,16341.588061 186639.897258,16342.402389 186404.612382,16343.590506 186393.268926,16340.613538 186382.515463,16331.655940 186377.149864,16318.239579 186375.947613,16300.337773 186377.149864,16248.968689 186369.379763,16095.503574 186355.642938,15894.530899 186354.451820,15873.626204 186347.883970,15860.490706 186348.485095,15847.955930 186346.125122,15447.611168"/>
    <poly id="156992807" type="landuse.farmyard" color="194,194,130" fill="1" layer="-3.00" shape="188603.350436,17350.410353 188618.656866,17376.738155 188636.813075,17425.361971 188632.248976,17556.495096 188632.749914,17744.572660 188632.994817,17852.624853 188632.004073,17907.445739 188633.406699,17932.386258 188630.211830,17961.585959 188620.159680,17985.618690 188452.501394,18244.013764 188418.159332,18300.919403 188392.010383,18353.953254 188357.167383,18411.780724 188334.447074,18458.272565 188320.253839,18496.192527 188312.550531,18538.144969 188255.109673,18814.658365 188218.018019,19247.821247 188196.711469,19431.266085 188190.110223,19471.539414 188184.733491,19501.397317 188174.614550,19534.566921 188165.619935,19558.723106 188157.293237,19591.305325 188151.894242,19617.250986 188149.500872,19642.929637 188149.534268,19674.310280 188150.691991,19717.575648 188155.500993,19759.105211 188162.669968,19791.955069 188172.788910,19828.049959 188176.974523,19858.509700 188178.165641,20020.330928 188174.013424,20047.532820 188168.013304,20080.049649 188162.068843,20111.431481 188156.714375,20226.356482 188144.135273,20225.475110 187973.371174,20225.354923 187976.922266,20246.668119 188017.531616,20343.405953 188091.603605,20477.496828 188115.459372,20520.765205 188151.883110,20621.431582 188178.755635,20695.723343 188215.813893,20812.510476 188237.910812,20885.962109 188267.733304,20945.338079 188289.262493,20985.683464 188297.032594,21003.592533 188302.409325,21022.102607 188305.359292,21157.937541 188305.559667,21178.384369 188486.921381,21177.155689 188520.962881,21224.553468 188587.821367,21329.326087 188649.926511,21428.450274 188679.214669,21481.925869 188692.316973,21515.635388 188700.120470,21538.660488 188712.031655,21616.550843 188722.807382,21673.620018 188737.701930,21703.737377 188746.062024,21733.601053 188747.286538,21765.575040 188746.663149,21794.517316 188739.527570,21815.739918 188730.544087,21828.548291 188713.222774,21836.909135 188691.726980,21845.871004 188680.973517,21857.210250 188676.231307,21876.055593 188674.483591,22149.002654 187698.011282,22146.251247 187695.250558,22086.855743 187683.127866,22086.241354 187669.691603,22078.481362 187657.168161,22064.163455 187644.032461,22049.525017 187337.391791,21870.673114 187329.309996,21864.996805 187321.250465,21854.846236 187277.056627,21774.523498 187243.315690,21683.156060 187226.317203,21644.050323 187194.947371,21592.684178 187195.548496,21582.240023 187197.351872,21287.256661 187196.750747,21239.177505 187191.040057,21211.091357 187181.700351,21193.529202 187171.937632,21179.439432 187166.594297,21163.039228 187166.004303,20725.317317 187173.763272,20688.885756 187199.422414,20590.048364 187207.782508,20534.814108 187226.005509,20266.979792 187231.371108,20247.869992 187240.632890,20238.321781 187260.937565,20235.624246 187565.663539,20224.406780 187567.856533,20377.446005 187699.091081,20375.416152 187699.681074,20223.191555 187698.523351,20197.845467 187693.948120,20177.333604 187688.994403,19249.490371 187696.642052,18810.545799 187695.105843,17418.259303 187911.132447,17412.291464 187910.030384,17764.853231 188175.126619,17768.191050 188176.373398,17378.487114 188175.972647,17348.381032 188603.350436,17350.410353"/>
    <poly id="156992822" type="landuse.farmland" color="194,194,130" fill="1" layer="-3.00" shape="187497.391295,16408.096117 187653.850840,16407.495380 187653.995555,17305.978986 187638.922896,17304.430299 187128.890385,17304.310143 187129.536038,16453.485214 187318.879360,16453.805608 187314.693747,16612.054761 187321.228201,16632.026294 187336.757270,16650.542713 187369.039923,16705.211045 187380.984504,16750.000555 187384.535596,16780.719184 187389.934591,16802.546682 187400.688054,16812.692811 187417.374845,16813.560572 187486.648965,16811.170891 187496.200177,16811.771649 187497.391295,16408.096117"/>
    <poly id="156994058" type="landuse.farmyard" color="194,194,130" fill="1" layer="-3.00" shape="181929.557720,15363.515301 181926.485302,15274.708060 181931.561471,14878.480970 181933.943708,14588.860961 181944.096046,13961.834077 181942.904927,13907.499043 181944.096046,13509.183393 181946.188852,13492.166796 181952.456140,13478.126453 181962.608477,13465.594261 181974.853621,13455.744688 181993.065490,13450.966714 182015.752402,13449.164965 182103.839515,13448.871346 182118.767459,13446.188742 182150.115027,13444.386993 182360.019059,13445.294541 182374.357010,13446.775979 182389.585516,13446.775979 182410.780747,13444.386993 182421.823640,13444.386993 182423.025891,13473.655435 182412.272428,15124.606286 182398.635791,15125.046777 182397.645047,15128.997853 182396.153366,15141.531848 182395.852803,15344.266777 182395.285074,15363.088149 181929.557720,15363.515301"/>
    <poly id="156994066" type="landuse.farmyard" color="194,194,130" fill="1" layer="-3.00" shape="182394.828664,15378.292102 182395.285074,15363.088149 182395.852803,15344.266777 182396.153366,15141.531848 182397.645047,15128.997853 182398.635791,15125.046777 182412.272428,15124.606286 182423.916447,15124.219187 182438.254397,15124.819857 182470.203091,15125.113518 182474.077009,15128.997853 182474.655871,15133.309332 182475.279260,15137.954519 182476.103024,15233.234658 182641.278885,15234.702977 182644.440358,15378.318799 182460.050754,15378.305450 182394.828664,15378.292102"/>
    <poly id="157582233" type="waterway.river" color="181,209,209" fill="0" layer="-4.00" shape="42929.284423,38498.552311 42818.488134,38541.861643 42759.744838,38571.113591 42717.588147,38587.471708 42659.546165,38625.712076 42616.476654,38649.199402 42525.940512,38686.517063 42462.310291,38727.125236 42434.625133,38751.067539 42386.735488,38790.646015 42369.469835,38819.631082 42346.705000,38881.266391 42316.270251,38899.564436 42308.221852,38904.352965 42294.785589,38913.702639 42281.071028,38922.731302 42207.010171,38949.268924 42153.320780,38988.754451 42096.280673,39002.718877 42066.101959,39011.386460 42042.658074,39030.112742 41991.851859,39085.435709 41934.255154,39103.332799 41893.523353,39125.349736 41851.144022,39156.609579 41764.748966,39225.723961 41746.448041,39229.228514 41721.968885,39233.334995 41689.875476,39243.219984 41661.277499,39261.117320 41640.961692,39281.462531 41608.267157,39315.571941 41587.283433,39348.250187 41535.497606,39395.455236 41520.669850,39407.895250 41506.354164,39419.907233 41474.550185,39466.417000 41431.892556,39551.036635 41420.081558,39592.035780 41392.863943,39613.371446 41107.162470,39692.628104 40937.789864,39742.242382 40774.150213,39798.745933 40743.214526,39799.374644 40722.698344,39805.300577 40660.370561,39850.835391 40615.508807,39857.764618"/>