<?xml version="1.0" encoding="UTF-8"?>

<!-- generated on 10/31/19 09:54:35 by Eclipse SUMO polyconvert Version 1.3.0
<configuration xmlns:xsi="http://www.w3.org/2001/XMLSchema-instance" xsi:noNamespaceSchemaLocation="http://sumo.dlr.de/xsd/polyconvertConfiguration.xsd">

    <input>
        <net-file value="osm.net.xml"/>
        <osm-files value="osm_bbox.osm.xml"/>
        <osm.keep-full-type value="true"/>
        <type-file value="C:\Program%20Files%20(x86)\Eclipse\Sumo\data\typemap\osmPolyconvert.typ.xml"/>
    </input>

    <output>
        <output-file value="osm.poly.xml"/>
    </output>

    <processing>
        <poi-layer-offset value="5"/>
    </processing>

    <report>
        <verbose value="true"/>
    </report>

</configuration>
-->

<additional xmlns:xsi="http://www.w3.org/2001/XMLSchema-instance" xsi:noNamespaceSchemaLocation="http://sumo.dlr.de/xsd/additional_file.xsd">
    <location netOffset="-410649.81,-3694465.26" convBoundary="-0.00,-3612.43,6767.02,5459.66" origBoundary="-111.960808,33.353350,-111.888128,33.435132" projParameter="+proj=utm +zone=12 +ellps=WGS84 +datum=WGS84 +units=m +no_defs"/>

    <poly id="157628524" type="building.house" color="255,230,230" fill="1" layer="-1.00" shape="2807.412382,583.884880 2817.911893,583.691236 2817.947044,585.542647 2826.381914,585.378555 2826.001023,565.656098 2819.398163,565.781639 2819.481232,569.872433 2807.149679,570.104627 2807.412382,583.884880"/>
    <poly id="188987544" type="leisure.track" color="207,245,201" fill="1" layer="-2.00" shape="1655.188997,2796.198711 1655.440302,2771.602694 1655.691509,2746.995591 1656.114629,2742.379044 1656.936075,2739.643889 1657.966614,2737.405809 1659.847951,2733.618752 1662.170745,2730.315576 1664.188443,2728.234874 1666.279827,2726.075886 1667.875921,2724.675389 1669.604508,2723.528721 1671.465586,2722.635882 1677.078025,2720.101250 1680.325398,2719.284556 1684.799283,2718.356955 1690.204278,2718.585185 1694.356373,2719.090887 1698.904634,2720.213944 1702.519160,2721.944228 1705.660763,2723.822945 1709.544185,2726.493296 1712.701453,2730.101640 1713.691866,2731.645023 1716.096749,2735.348889 1716.531816,2736.154390 1717.924216,2738.958192 1718.806057,2740.835206 1719.152556,2742.129392 1719.962181,2748.353654 1719.903610,2773.713006 1719.845042,2799.072359 1719.795775,2824.431629 1719.737112,2849.779897 1718.711880,2854.656925 1717.509031,2858.404561 1716.215266,2861.354667 1713.868150,2866.077347 1711.237118,2869.228068 1709.467988,2871.029304 1705.702749,2874.212479 1702.216322,2876.350834 1697.030091,2878.704180 1692.133374,2880.167845 1687.886098,2880.439186 1683.288449,2880.015143 1680.469314,2879.852191 1678.762977,2879.346507 1674.862061,2877.818417 1671.658526,2876.284009 1667.859642,2873.701613 1665.346655,2871.406946 1662.659863,2868.404207 1661.121402,2865.901120 1658.198478,2861.470138 1656.006866,2855.646497 1654.863262,2851.565299 1654.686499,2845.401834 1654.937796,2820.805815 1655.188997,2796.198711"/>
    <poly id="220947909" type="building.yes" color="255,230,230" fill="1" layer="-1.00" shape="1237.538448,1376.483792 1271.091452,1376.067513 1271.098111,1376.799276 1271.372953,1377.362275 1271.814488,1377.846140 1272.596990,1377.983166 1273.302369,1377.821512 1273.773132,1377.429140 1274.129472,1376.727338 1274.113816,1376.028921 1347.552644,1375.094798 1347.542462,1373.974979 1354.070785,1373.893447 1353.924821,1361.930566 1347.387190,1362.012183 1346.551556,1295.678861 1350.959640,1295.627695 1350.883180,1289.263743 1236.450723,1290.715066 1237.025077,1343.589655 1239.341638,1345.708597 1239.336837,1349.267966 1237.085046,1349.155406 1237.538448,1376.483792"/>
    <poly id="220947910" type="building.yes" color="255,230,230" fill="1" layer="-1.00" shape="1371.673990,1413.473662 1290.346254,1414.157825 1287.849801,1416.797363 1287.858621,1420.833402 1287.184877,1421.405033 1287.246350,1426.116976 1287.929072,1426.532117 1288.347144,1476.569543 1287.214769,1477.843906 1287.351737,1500.052407 1288.559983,1500.983913 1288.938618,1546.686201 1287.987102,1547.393418 1287.996373,1554.545250 1288.971110,1555.367999 1289.103754,1559.724471 1291.278942,1561.645122 1295.353125,1561.707848 1296.143581,1562.720774 1303.611048,1562.630660 1304.364345,1561.603689 1352.946350,1561.195109 1353.613988,1561.998480 1370.716461,1561.876261 1372.899025,1559.494625 1371.673990,1413.473662"/>
    <poly id="220947913" type="building.yes" color="255,230,230" fill="1" layer="-1.00" shape="1348.415527,1090.474138 1445.931819,1089.011491 1445.209052,1041.172347 1347.692278,1042.634991 1348.415527,1090.474138"/>
    <poly id="220947915" type="building.yes" color="255,230,230" fill="1" layer="-1.00" shape="1512.943395,1543.874426 1581.911771,1543.426146 1580.499159,1323.038203 1511.529212,1323.486461 1512.943395,1543.874426"/>
    <poly id="220947916" type="building.yes" color="255,230,230" fill="1" layer="-1.00" shape="1101.135084,1141.879575 1180.982283,1140.752759 1180.516451,1107.991257 1100.668982,1109.118070 1101.135084,1141.879575"/>
    <poly id="220947918" type="building.yes" color="255,230,230" fill="1" layer="-1.00" shape="1264.676652,1159.694566 1307.669100,1159.092746 1306.903129,1104.534510 1263.910439,1105.136328 1264.676652,1159.694566"/>
    <poly id="220947919" type="building.yes" color="255,230,230" fill="1" layer="-1.00" shape="1366.212681,1156.453662 1439.691068,1155.597546 1439.269397,1119.409392 1365.790835,1120.276593 1366.212681,1156.453662"/>
    <poly id="220947920" type="building.yes" color="255,230,230" fill="1" layer="-1.00" shape="1245.547556,1267.291514 1404.722772,1265.455845 1404.159123,1216.728181 1244.983105,1218.563843 1245.547556,1267.291514"/>
    <poly id="220947923" type="building.yes" color="255,230,230" fill="1" layer="-1.00" shape="1025.137481,1094.993088 1135.385907,1093.433319 1134.744086,1047.500591 1051.585338,1048.669059 1049.321332,1046.205945 1024.453672,1046.554792 1025.137481,1094.993088"/>
    <poly id="220947924" type="building.yes" color="255,230,230" fill="1" layer="-1.00" shape="1438.905307,1224.739804 1439.455674,1263.831911 1488.502145,1263.198074 1501.972952,1261.512363 1513.284998,1258.693086 1512.977821,1224.843509 1438.905307,1224.739804"/>
    <poly id="220947925" type="building.yes" color="255,230,230" fill="1" layer="-1.00" shape="1390.793109,1541.069651 1452.388149,1540.831610 1451.570632,1322.799988 1414.062160,1322.941101 1414.161093,1349.186053 1401.958999,1349.230391 1402.117972,1393.337947 1390.241429,1393.379343 1390.793109,1541.069651"/>
    <poly id="220947929" type="building.yes" color="255,230,230" fill="1" layer="-1.00" shape="1221.784048,1092.601977 1323.602258,1091.675519 1323.179494,1045.186403 1234.064883,1045.997201 1234.034806,1042.693181 1223.674368,1042.787497 1223.732812,1049.207054 1221.389160,1049.228391 1221.784048,1092.601977"/>
    <poly id="220947930" type="building.yes" color="255,230,230" fill="1" layer="-1.00" shape="1011.820655,1142.106590 1044.843872,1141.638945 1044.866423,1143.091300 1058.350991,1142.901762 1058.328443,1141.449408 1091.314459,1140.982261 1090.845695,1107.932485 1011.351518,1109.045726 1011.820655,1142.106590"/>
    <poly id="220970285" type="building.yes" color="255,230,230" fill="1" layer="-1.00" shape="1312.581626,1966.992789 1378.370911,1966.017479 1375.714276,1788.363599 1309.923782,1789.338902 1312.581626,1966.992789"/>
    <poly id="220970286" type="building.yes" color="255,230,230" fill="1" layer="-1.00" shape="1542.772165,1766.543812 1594.172173,1766.254991 1593.286677,1608.089363 1541.895128,1608.378087 1542.772165,1766.543812"/>
    <poly id="220970287" type="building.yes" color="255,230,230" fill="1" layer="-1.00" shape="1391.533946,1953.090900 1450.780715,1952.630173 1449.654166,1805.055904 1390.397093,1805.505616 1391.533946,1953.090900"/>
    <poly id="220970288" type="building.yes" color="255,230,230" fill="1" layer="-1.00" shape="1332.421169,1974.418852 1333.437892,2053.479903 1349.776052,2053.264778 1349.700384,2046.989518 1449.952126,2045.701332 1449.899486,2041.953984 1462.611156,2041.794169 1461.723820,1972.766823 1332.421169,1974.418852"/>
    <poly id="221570313" type="amenity.parking" color="184,184,179" fill="1" layer="-1.00" shape="3984.314661,2917.460749 3997.906609,2917.085788 3997.728503,2910.600778 3984.127247,2910.975822 3984.314661,2917.460749"/>
    <poly id="221570314" type="amenity.parking" color="184,184,179" fill="1" layer="-1.00" shape="4004.543777,2916.816554 4014.142127,2917.009083 4014.270878,2910.521366 4004.672619,2910.339925 4004.543777,2916.816554"/>
    <poly id="221570315" type="amenity.parking" color="184,184,179" fill="1" layer="-1.00" shape="4022.569241,2895.113224 4041.544307,2893.559851 4042.113595,2869.537853 4058.460185,2869.393715 4058.939677,2853.112054 4042.910574,2853.408625 4042.792196,2857.911466 4036.402817,2857.812577 4036.048058,2852.382502 4040.410385,2852.499266 4040.349288,2792.845450 4144.803162,2792.390603 4145.230999,2787.119956 4147.871767,2787.096698 4147.892274,2789.425032 4158.055321,2811.489684 4163.648890,2810.974724 4173.727173,2805.463871 4165.314616,2787.874496 4172.159395,2786.882821 4168.595881,2788.777010 4173.506329,2798.336125 4178.319935,2796.896635 4181.159771,2801.528663 4187.828703,2798.520501 4186.353675,2790.472390 4187.575173,2787.678508 4190.511593,2785.324144 4195.491479,2784.814605 4197.995768,2786.189671 4200.039232,2788.034496 4200.532749,2791.278984 4214.185786,2786.202413 4213.221885,2782.341126 4221.300638,2781.028159 4221.078464,2773.745190 4028.812983,2773.265687 4022.020134,2780.144823 4022.569241,2895.113224"/>
    <poly id="221570316" type="leisure.pitch" color="207,245,201" fill="1" layer="-2.00" shape="4110.366278,2912.479452 4126.535851,2911.250346 4124.548720,2885.188480 4108.388304,2886.406419 4110.366278,2912.479452"/>
    <poly id="221570316#1" type="sport.basketball" color="79,230,125" fill="1" layer="-2.00" shape="4110.366278,2912.479452 4126.535851,2911.250346 4124.548720,2885.188480 4108.388304,2886.406419 4110.366278,2912.479452"/>
    <poly id="221570317" type="leisure.playground" color="207,245,201" fill="1" layer="-2.00" shape="4169.998662,2879.443679 4174.564757,2879.470004 4180.325709,2876.846827 4183.238159,2872.829446 4183.397628,2867.705309 4182.686951,2863.032360 4183.835930,2859.396414 4186.021159,2855.163673 4186.987712,2850.875132 4186.030787,2845.694295 4182.469495,2841.501056 4180.687787,2838.755789 4179.882731,2834.981812 4178.502221,2832.388248 4176.062664,2829.914889 4172.862976,2827.714340 4169.961570,2827.706622 4154.128656,2833.390128 4148.866610,2838.814232 4144.532590,2847.190705 4146.419086,2852.330087 4146.926236,2855.008957 4144.571037,2857.890448 4141.548111,2860.977408 4140.724669,2865.674956 4141.952484,2868.879710 4145.634999,2870.998379 4149.538276,2870.731149 4153.221755,2868.736103 4155.145344,2864.361512 4154.786679,2861.648070 4155.461940,2857.018358 4157.876005,2852.373333 4160.401464,2851.929742 4162.423395,2853.442104 4163.622137,2856.514058 4163.820849,2860.071610 4161.640099,2865.867748 4162.036277,2871.785341 4165.585805,2876.754847 4169.998662,2879.443679"/>
    <poly id="221570328" type="leisure.swimming_pool" color="207,245,201" fill="1" layer="-2.00" shape="3997.952928,2932.874938 4000.727176,2930.067329 4002.568248,2930.051086 4002.278809,2933.080711 4005.989711,2936.307894 4005.782385,2940.212760 4004.747330,2940.942623 4003.152223,2941.433487 3997.744921,2936.702193 3997.952928,2932.874938"/>
    <poly id="223741836" type="building.retail" color="255,230,230" fill="1" layer="-1.00" shape="3106.667508,837.872240 3106.757373,916.863558 3002.113993,916.111005 3002.115421,904.801055 3009.890480,904.731706 3009.727165,875.992618 3005.068585,876.133963 3005.172127,887.742356 2995.155674,887.831704 2995.090266,890.925888 2952.046583,891.110372 2952.155942,835.624172 3106.667508,837.872240"/>
    <poly id="223741836#1" type="shop.supermarket" color="237,199,255" fill="1" layer="-1.00" shape="3106.667508,837.872240 3106.757373,916.863558 3002.113993,916.111005 3002.115421,904.801055 3009.890480,904.731706 3009.727165,875.992618 3005.068585,876.133963 3005.172127,887.742356 2995.155674,887.831704 2995.090266,890.925888 2952.046583,891.110372 2952.155942,835.624172 3106.667508,837.872240"/>
    <poly id="223862361" type="building.yes" color="255,230,230" fill="1" layer="-1.00" shape="1284.206949,1776.899028 1284.098186,1758.815089 1276.630365,1758.849784 1276.569872,1749.137032 1284.037600,1749.091249 1283.931562,1731.306668 1249.605910,1731.508209 1247.234800,1733.603296 1247.478074,1774.627596 1250.141845,1777.098201 1284.206949,1776.899028"/>
    <poly id="223862364" type="building.yes" color="255,230,230" fill="1" layer="-1.00" shape="1236.352684,2162.496108 1265.905343,2162.227040 1265.943191,2166.384791 1278.143654,2166.273736 1277.887631,2138.145169 1316.590734,2137.792977 1315.360532,2002.571874 1242.128623,2003.238382 1243.282720,2129.988774 1236.057266,2130.054568 1236.352684,2162.496108"/>
    <poly id="223862366" type="building.yes" color="255,230,230" fill="1" layer="-1.00" shape="1493.622538,2417.226699 1493.942694,2452.484426 1497.011316,2452.456562 1497.148838,2467.601862 1512.584911,2467.461712 1512.530556,2461.474551 1514.232244,2461.459102 1514.038281,2440.093806 1511.313714,2440.118541 1511.143400,2421.358770 1508.307241,2421.384519 1508.268285,2417.093720 1493.622538,2417.226699"/>
    <poly id="223862371" type="building.yes" color="255,230,230" fill="1" layer="-1.00" shape="1291.936574,1640.055193 1291.888246,1618.389205 1289.149138,1615.819479 1275.906016,1615.895635 1275.890898,1613.212418 1273.231094,1613.225535 1271.320678,1615.870835 1260.402572,1615.936941 1257.969839,1613.308994 1255.570526,1613.330833 1255.585649,1616.014051 1241.859045,1616.105743 1239.566242,1618.632560 1239.678599,1638.124672 1242.154195,1640.353048 1291.936574,1640.055193"/>
    <poly id="223862372" type="building.yes" color="255,230,230" fill="1" layer="-1.00" shape="1411.927523,2313.129452 1412.061041,2327.820171 1413.362897,2327.808339 1413.427590,2334.926408 1413.994827,2334.921253 1414.006717,2336.229558 1420.032447,2336.174796 1420.020558,2334.866491 1420.838867,2334.859054 1420.834232,2334.349037 1421.680438,2334.341347 1421.632478,2329.063775 1422.515880,2329.055747 1422.458147,2322.702704 1421.286476,2322.713352 1421.198615,2313.045196 1411.927523,2313.129452"/>
    <poly id="223862375" type="building.yes" color="255,230,230" fill="1" layer="-1.00" shape="1544.374459,2453.501348 1553.794196,2453.415866 1553.818744,2456.121176 1559.723513,2456.067596 1559.698966,2453.362286 1562.311943,2453.338577 1562.284278,2450.289560 1565.120429,2450.263827 1564.813811,2416.469631 1564.152816,2413.315478 1562.911122,2410.732094 1559.607184,2408.400276 1556.375984,2406.910505 1553.595614,2406.935734 1549.484956,2407.937713 1546.234585,2410.484242 1544.039997,2416.647047 1544.374459,2453.501348"/>
    <poly id="223862377" type="amenity.fast_food" color="237,199,199" fill="1" layer="-1.00" shape="1256.959010,2352.239204 1262.454591,2352.178081 1262.512240,2357.488831 1263.879186,2357.476386 1263.872221,2356.711360 1270.418480,2356.629589 1270.426353,2357.494401 1271.886288,2357.481111 1271.820152,2352.259145 1272.935926,2352.237899 1272.832447,2342.913618 1270.758778,2342.932495 1270.607935,2330.448492 1258.175508,2330.594940 1258.286684,2339.741739 1256.817548,2339.766203 1256.959010,2352.239204"/>
    <poly id="223862377#1" type="building.yes" color="255,230,230" fill="1" layer="-1.00" shape="1256.959010,2352.239204 1262.454591,2352.178081 1262.512240,2357.488831 1263.879186,2357.476386 1263.872221,2356.711360 1270.418480,2356.629589 1270.426353,2357.494401 1271.886288,2357.481111 1271.820152,2352.259145 1272.935926,2352.237899 1272.832447,2342.913618 1270.758778,2342.932495 1270.607935,2330.448492 1258.175508,2330.594940 1258.286684,2339.741739 1256.817548,2339.766203 1256.959010,2352.239204"/>
    <poly id="223862378" type="building.yes" color="255,230,230" fill="1" layer="-1.00" shape="1394.508092,1775.862643 1449.923845,1775.359146 1449.786785,1760.269296 1455.189806,1760.220222 1455.083871,1748.556356 1449.641568,1744.281373 1449.405013,1718.237247 1454.282288,1713.546976 1454.142922,1698.202119 1449.172689,1692.658789 1448.364753,1603.705191 1446.923304,1603.718283 1446.895711,1600.680356 1441.142743,1594.977815 1437.766960,1595.008479 1437.751047,1593.256682 1434.272967,1593.288276 1434.288074,1594.951375 1430.438007,1594.986350 1430.422899,1593.323251 1387.495573,1593.713315 1388.056266,1655.403187 1393.412848,1655.354503 1394.508092,1775.862643"/>
    <poly id="223862386" type="building.yes" color="255,230,230" fill="1" layer="-1.00" shape="1317.597662,1785.377118 1376.649473,1784.840124 1375.235720,1629.318208 1316.182959,1629.855190 1317.597662,1785.377118"/>
    <poly id="223862393" type="building.yes" color="255,230,230" fill="1" layer="-1.00" shape="1494.984859,2492.492458 1519.282662,2492.271852 1519.109241,2473.168372 1494.811390,2473.388977 1494.984859,2492.492458"/>
    <poly id="223862396" type="building.roof" color="255,230,230" fill="1" layer="-1.00" shape="1336.921140,2350.535738 1382.988866,2350.194414 1382.889022,2337.166626 1336.821335,2337.519036 1336.921140,2350.535738"/>
    <poly id="223862403" type="building.yes" color="255,230,230" fill="1" layer="-1.00" shape="1465.370134,2422.339938 1492.056921,2421.986686 1491.859435,2407.407431 1465.172709,2407.771770 1465.370134,2422.339938"/>
    <poly id="223862406" type="building.yes" color="255,230,230" fill="1" layer="-1.00" shape="1544.079194,1898.293487 1597.084782,1897.712886 1596.093314,1805.811483 1543.087121,1806.380992 1544.079194,1898.293487"/>
    <poly id="223862409" type="building.yes" color="255,230,230" fill="1" layer="-1.00" shape="1492.798937,2336.766756 1493.165120,2337.151519 1493.668472,2337.280008 1497.992591,2337.251833 1498.031058,2338.415750 1498.136870,2338.802878 1498.523161,2339.353783 1499.261403,2339.746257 1504.487521,2339.709896 1504.546460,2342.104422 1504.716659,2342.413348 1504.942653,2342.721767 1505.055650,2342.875976 1505.486623,2343.226887 1507.132539,2343.211944 1507.707161,2342.996051 1508.085399,2342.659969 1508.305353,2342.303149 1508.290897,2339.686453 1513.396127,2339.651194 1514.100735,2339.411945 1514.524863,2339.008917 1514.779296,2338.352401 1514.740428,2337.144135 1519.287722,2337.113944 1519.602176,2336.922589 1519.905720,2336.553922 1520.144373,2336.208020 1520.278121,2335.574776 1520.115417,2311.503668 1519.869517,2311.051282 1519.652520,2310.709516 1519.436026,2310.423187 1519.098847,2310.160130 1505.298844,2310.252144 1505.229868,2300.605995 1493.429538,2300.724224 1492.910304,2300.895263 1492.642748,2301.130545 1492.459285,2301.409417 1492.304322,2301.754560 1492.186254,2302.066103 1492.145095,2302.654154 1492.153002,2307.621617 1492.352006,2308.030075 1492.577900,2308.327407 1492.924882,2308.645815 1493.373348,2308.874597 1494.164064,2308.900681 1494.165675,2309.078079 1494.167752,2310.331032 1493.340343,2310.360721 1493.044588,2310.562995 1492.703646,2310.909827 1492.529583,2311.199702 1492.275352,2311.878393 1492.427216,2335.772189 1492.515639,2336.292534 1492.798937,2336.766756"/>
    <poly id="223862412" type="building.yes" color="255,230,230" fill="1" layer="-1.00" shape="1280.285418,1707.755151 1279.979604,1655.754066 1248.694762,1655.939019 1246.428553,1658.321445 1246.707827,1705.344154 1248.944946,1707.940614 1280.285418,1707.755151"/>
    <poly id="223862417" type="building.yes" color="255,230,230" fill="0" layer="-1.00" shape="1601.776046,2301.193595 1577.514862,2301.402559 1577.841951,2339.509890 1582.844792,2339.464508 1582.858168,2340.939124 1592.054838,2340.855705 1592.040257,2339.248042 1602.101833,2339.167877"/>
    <poly id="223862418" type="building.yes" color="255,230,230" fill="1" layer="-1.00" shape="1228.178430,1928.674951 1276.341238,1928.391720 1276.085956,1886.036934 1264.042928,1886.113283 1263.938662,1868.528270 1275.981712,1868.451921 1275.738562,1826.407499 1227.565947,1826.690808 1228.178430,1928.674951"/>
    <poly id="223862420" type="building.yes" color="255,230,230" fill="1" layer="-1.00" shape="1534.721305,2035.406879 1562.312190,2035.156531 1562.231218,2026.231232 1589.598945,2025.982987 1589.679891,2034.908286 1599.555698,2034.818724 1598.972552,1970.512226 1534.137728,1971.100376 1534.721305,2035.406879"/>
    <poly id="223862422" type="building.yes" color="255,230,230" fill="1" layer="-1.00" shape="1359.023648,2148.750301 1420.453819,2148.191880 1420.396289,2141.861014 1482.049675,2141.300957 1481.633057,2095.421583 1419.867789,2095.982650 1419.923202,2102.080682 1358.604329,2102.638085 1359.023648,2148.750301"/>
    <poly id="223862439" type="leisure.swimming_pool" color="207,245,201" fill="1" layer="-2.00" shape="1279.500627,2349.073431 1280.560506,2349.041607 1281.373148,2349.433388 1282.181033,2350.324183 1282.712270,2351.472526 1282.899748,2352.657263 1282.999383,2354.408301 1282.888185,2355.473785 1282.260686,2357.031853 1281.731540,2358.156583 1280.956079,2358.784584 1279.991209,2359.037308 1278.826419,2358.781792 1278.039655,2358.168011 1277.528429,2357.174722 1277.730497,2355.875556 1278.288246,2354.828183 1278.075192,2353.898709 1277.560130,2352.484101 1277.593202,2351.009062 1278.121945,2349.839982 1278.657247,2349.391579 1279.500627,2349.073431"/>
    <poly id="223862441" type="building.yes" color="255,230,230" fill="1" layer="-1.00" shape="1475.180511,2474.476492 1482.219727,2474.412561 1482.119135,2463.336312 1475.079911,2463.400243 1475.180511,2474.476492"/>
    <poly id="223862442" type="building.yes" color="255,230,230" fill="1" layer="-1.00" shape="1369.898314,2448.754951 1374.557043,2448.712589 1374.514902,2444.078082 1369.856171,2444.120444 1369.898314,2448.754951"/>
    <poly id="224009419" type="building.yes" color="255,230,230" fill="1" layer="-1.00" shape="1069.251352,2155.303841 1127.783320,2155.113740 1127.742877,2142.517848 1131.444145,2142.506279 1131.320511,2105.483716 1107.857328,2105.553508 1107.824858,2096.893875 1088.518701,2096.959071 1088.551189,2105.618704 1069.086962,2105.685380 1069.251352,2155.303841"/>
    <poly id="224009429" type="building.yes" color="255,230,230" fill="1" layer="-1.00" shape="1066.762445,2058.847607 1083.474090,2058.794949 1083.490500,2065.691695 1087.219695,2065.679856 1087.230723,2067.908495 1103.254208,2067.862147 1103.226687,2058.725674 1114.349184,2058.690777 1114.200108,2011.744459 1066.613138,2011.901286 1066.762445,2058.847607"/>
    <poly id="224009434" type="building.yes" color="255,230,230" fill="1" layer="-1.00" shape="1154.643604,2153.305436 1197.738177,2153.167771 1197.594937,2107.840290 1191.968623,2107.858283 1191.958944,2103.733540 1193.205137,2103.733275 1193.182530,2098.189353 1156.076800,2098.316799 1156.099632,2103.882895 1160.805227,2103.862185 1160.814717,2107.964753 1154.500263,2107.989039 1154.643604,2153.305436"/>
    <poly id="224009436" type="building.yes" color="255,230,230" fill="1" layer="-1.00" shape="1139.883677,2066.485871 1188.986144,2066.315589 1188.790007,2004.977157 1187.450809,2004.978270 1187.432543,1999.911105 1177.370100,1999.936257 1177.379173,2005.014594 1171.920186,2005.031073 1171.900199,1998.755303 1152.947223,1998.817146 1152.967222,2005.092915 1139.677829,2005.136431 1139.883677,2066.485871"/>
    <poly id="224009440" type="building.yes" color="255,230,230" fill="1" layer="-1.00" shape="986.530261,1712.450922 1047.278320,1712.251269 1047.211251,1691.649907 1052.558720,1691.623293 1052.499055,1672.851426 1045.923926,1672.878153 1045.801648,1636.033006 1050.712064,1636.010380 1050.638433,1614.688344 1043.942369,1614.716174 1043.901236,1602.053766 986.165784,1602.248090 986.266552,1631.619954 979.709993,1631.646556 979.858208,1676.397398 986.414838,1676.381883 986.530261,1712.450922"/>
    <poly id="224009447" type="building.yes" color="255,230,230" fill="1" layer="-1.00" shape="825.616439,1347.510025 867.403249,1347.371869 867.416779,1350.886722 860.097333,1350.909285 860.171009,1374.227209 867.908933,1374.200820 867.839684,1353.399889 902.399918,1353.272510 902.382102,1347.251751 962.891970,1346.177843 962.965649,1352.209178 993.457662,1351.664657 993.375613,1345.733192 993.849909,1345.728863 993.699756,1333.355748 1004.096379,1333.183228 1003.885390,1321.276375 1014.207627,1321.104545 1013.705156,1291.525686 992.799410,1291.783035 992.866176,1296.040313 824.876480,1298.129707 825.616439,1347.510025"/>
    <poly id="224009459" type="building.yes" color="255,230,230" fill="1" layer="-1.00" shape="996.058632,1271.838790 1063.766455,1270.622206 1062.758300,1215.156912 995.050190,1216.384582 996.058632,1271.838790"/>
    <poly id="224009463" type="building.yes" color="255,230,230" fill="1" layer="-1.00" shape="1007.479022,1564.176046 1059.278950,1563.758796 1058.600315,1479.172730 1006.799833,1479.578887 1007.479022,1564.176046"/>
    <poly id="224009476" type="building.yes" color="255,230,230" fill="1" layer="-1.00" shape="1118.035349,1761.214751 1172.617091,1761.027744 1172.275398,1657.178318 1117.693071,1657.365316 1117.757359,1678.698523 1112.056398,1678.717235 1112.074800,1686.855843 1117.785056,1686.837046 1118.035349,1761.214751"/>
    <poly id="225367654" type="landuse.industrial" color="209,209,204" fill="0" layer="-3.00" shape="1604.525374,2357.219737 1604.370779,2339.147300 1602.101833,2339.167877"/>
    <poly id="225367659" type="landuse.industrial" color="209,209,204" fill="0" layer="-3.00" shape="1601.776046,2301.193595 1604.919207,2301.176179 1604.754763,2282.017185 1603.829244,2173.804331 1601.652444,1919.393324"/>
    <poly id="226486661" type="building.yes" color="255,230,230" fill="1" layer="-1.00" shape="3271.572265,978.643493 3271.321217,938.905742 3328.937783,938.548809 3329.188496,978.275469 3271.572265,978.643493"/>
    <poly id="255924971" type="building.commercial" color="255,230,230" fill="1" layer="-1.00" shape="4306.013672,866.302969 4321.480108,866.167107 4321.549933,874.116682 4327.790444,874.061870 4327.818781,877.288266 4337.798015,877.200625 4338.171221,891.101860 4321.949262,890.989306 4322.237474,895.211352 4306.517835,895.105500 4306.013672,866.302969"/>
    <poly id="256986555" type="building.yes" color="255,230,230" fill="1" layer="-1.00" shape="2859.937824,3023.117309 2862.224804,3023.052508 2862.267073,3024.659921 2865.632553,3024.574390 2865.687986,3026.614126 2876.305029,3026.341799 2876.206143,3022.561602 2877.496720,3022.339389 2877.934991,3020.395034 2882.845673,3020.484196 2883.051527,3009.183468 2877.945576,3009.096051 2878.001212,3005.957590 2881.702825,3006.024295 2883.035022,3004.216097 2883.244446,2993.314513 2882.191061,2993.024547 2882.120289,2990.308568 2878.894271,2990.392846 2878.838842,2988.353110 2883.236249,2988.236185 2882.902290,2975.842550 2878.170237,2975.973555 2878.129259,2974.510277 2876.455858,2974.558500 2876.398942,2972.352455 2873.972475,2972.418499 2873.899817,2969.491861 2864.379815,2969.743292 2864.435941,2971.860639 2861.340094,2971.943759 2861.381471,2973.451386 2859.605788,2973.500526 2859.955816,2986.648017 2861.936059,2986.597047 2861.990402,2988.514822 2865.030454,2988.432201 2865.118559,2992.046170 2860.265635,2992.178264 2860.607157,3005.414537 2864.614127,3005.312182 2864.687978,3008.371868 2861.173818,3008.469817 2861.216583,3010.132666 2859.608276,3010.180311 2859.937824,3023.117309"/>
    <poly id="256986556" type="leisure.swimming_pool" color="207,245,201" fill="1" layer="-2.00" shape="2912.951461,3008.539250 2915.632326,3007.805650 2916.833193,3007.950155 2920.445005,3009.414792 2921.517010,3011.789179 2923.320891,3012.815354 2925.418341,3012.353086 2926.900692,3009.656496 2928.979435,3008.141016 2930.631857,3007.826872 2932.441074,3008.409472 2934.756942,3008.455313 2934.922048,3000.913855 2932.965444,3000.487806 2930.781050,3001.627229 2928.724343,3001.446016 2927.260238,2999.940011 2927.240229,2997.700372 2925.058569,2996.023367 2922.725191,2996.099655 2920.791270,2998.212606 2919.173407,3001.353936 2916.624399,3002.274857 2913.323490,3001.262060 2912.951461,3008.539250"/>
    <poly id="256986557" type="building.yes" color="255,230,230" fill="1" layer="-1.00" shape="2940.874071,3030.133560 2940.642806,2985.505581 2995.467435,2985.215596 2995.515268,2995.782231 2973.691462,2995.899459 2973.865419,3029.960884 2940.874071,3030.133560"/>