<?xml version="1.0" encoding="UTF-8"?>

<!-- generated on 10/31/19 09:54:43 by Eclipse SUMO duarouter Version 1.3.0
<configuration xmlns:xsi="http://www.w3.org/2001/XMLSchema-instance" xsi:noNamespaceSchemaLocation="http://sumo.dlr.de/xsd/duarouterConfiguration.xsd">

    <input>
        <net-file value="C:\Users\eandert\Sumo\2019-10-31-09-54-20\osm.net.xml"/>
        <route-files value="C:\Users\eandert\Sumo\2019-10-31-09-54-20\osm.passenger.trips.xml"/>
    </input>

    <output>
        <output-file value="C:\Users\eandert\Sumo\2019-10-31-09-54-20\osm.passenger.trips.xml.tmp"/>
        <write-trips value="true"/>
    </output>

    <time>
        <begin value="0"/>
        <end value="3600.0"/>
    </time>

    <report>
        <no-warnings value="true"/>
        <ignore-errors value="true"/>
        <no-step-log value="true"/>
    </report>

</configuration>
-->

<routes xmlns:xsi="http://www.w3.org/2001/XMLSchema-instance" xsi:noNamespaceSchemaLocation="http://sumo.dlr.de/xsd/routes_file.xsd">
    <vType id="veh_passenger" vClass="passenger" color="0,1,0" speedDev="0.1">
        <param key="has.driverstate.device" value="true"/>
    </vType>
	<vType id="CAV_passenger" vClass="passenger" color="0,1,1" minGap="1.0" speedFactor="1.0" speedDev="0" lcCooperative="1.0"/>
    <vType id="AV_passenger" vClass="passenger" color="1,0,0" minGap="1.0" speedFactor="1.0" speedDev="0" lcCooperative="0.0"/>
    <vType id="AV_passenger_conservative" vClass="passenger" color="1,1,0" minGap="1.0" speedFactor="1.0" speedDev="0" carFollowModel="ACC" lcCooperative="0.0"/>
    <trip id="veh0" type="veh_passenger" depart="0.00" departLane="best" from="436910145#4" to="-327757097#8"/>
    <trip id="veh1" type="veh_passenger" depart="0.90" departLane="best" from="436943774#0" to="436943746#0"/>
    <trip id="veh2" type="veh_passenger" depart="1.80" departLane="best" from="5639976" to="-395481526#14"/>
    <trip id="veh3" type="veh_passenger" depart="2.70" departLane="best" departSpeed="max" from="-5657755" to="-327757100#0"/>
    <trip id="veh4" type="veh_passenger" depart="3.60" departLane="best" from="-436943783#1" to="327757111#2"/>
    <trip id="veh5" type="veh_passenger" depart="4.50" departLane="best" from="-327757097#3" to="-436943778#0"/>
    <trip id="veh6" type="veh_passenger" depart="5.40" departLane="best" from="436910215#4" to="395481526#9"/>
    <trip id="veh7" type="veh_passenger" depart="6.30" departLane="best" from="-436943783#4" to="436907118#7"/>
    <trip id="veh8" type="veh_passenger" depart="7.20" departLane="best" from="5603698#2" to="-264835486#8"/>
    <trip id="veh9" type="veh_passenger" depart="8.10" departLane="best" from="5601909#1" to="436943768#2"/>
    <trip id="veh10" type="veh_passenger" depart="9.00" departLane="best" from="-5619185#0" to="-436910215#0"/>
    <trip id="veh11" type="veh_passenger" depart="9.90" departLane="best" departSpeed="max" from="5682034#0" to="-5630801#1"/>
    <trip id="veh12" type="veh_passenger" depart="10.80" departLane="best" from="-395481526#16" to="-395483017#1"/>
    <trip id="veh13" type="veh_passenger" depart="11.70" departLane="best" departSpeed="max" from="5620004" to="436910182#0"/>
    <trip id="veh14" type="veh_passenger" depart="12.60" departLane="best" departSpeed="max" from="5602108#0" to="536925034#0"/>
    <trip id="veh15" type="veh_passenger" depart="13.50" departLane="best" from="327757097#2" to="594384220"/>
    <trip id="veh16" type="veh_passenger" depart="14.40" departLane="best" from="-5634388#13" to="395483007#2"/>
    <trip id="veh17" type="veh_passenger" depart="15.30" departLane="best" from="5613276#1" to="436929508"/>
    <trip id="veh18" type="veh_passenger" depart="16.20" departLane="best" from="5628210#2" to="413980250#1"/>
    <trip id="veh19" type="veh_passenger" depart="17.10" departLane="best" from="436943738#1" to="-327757111#1"/>
    <trip id="veh20" type="veh_passenger" depart="18.00" departLane="best" from="-512805518#0" to="-5610119#3"/>
    <trip id="veh21" type="veh_passenger" depart="18.90" departLane="best" from="-395215594#5" to="-553879436#5"/>
    <trip id="veh22" type="veh_passenger" depart="19.80" departLane="best" from="-395483002#3" to="-5606535#0"/>
    <trip id="veh23" type="veh_passenger" depart="20.70" departLane="best" from="436907148#2" to="-5639631#1"/>
    <trip id="veh24" type="veh_passenger" depart="21.60" departLane="best" from="-5631960#0" to="-437372909#7"/>
    <trip id="veh25" type="veh_passenger" depart="22.50" departLane="best" departSpeed="max" from="-5588133" to="5672542#1"/>
    <trip id="veh26" type="veh_passenger" depart="23.40" departLane="best" from="-436910227#2" to="536925032#9"/>
    <trip id="veh27" type="veh_passenger" depart="24.30" departLane="best" from="-436910195#5" to="-5644694#1"/>
    <trip id="veh28" type="veh_passenger" depart="25.20" departLane="best" from="692089613#3" to="436940275#0"/>
    <trip id="veh29" type="veh_passenger" depart="26.10" departLane="best" from="351673438#0" to="436943753#0"/>
    <trip id="veh30" type="veh_passenger" depart="27.00" departLane="best" from="5619182#1" to="5602109#1"/>
    <trip id="veh31" type="veh_passenger" depart="27.90" departLane="best" from="-512805518#1" to="-327757100#0"/>
    <trip id="veh32" type="veh_passenger" depart="28.80" departLane="best" departSpeed="max" from="-5611865#7" to="-5600284#4"/>
    <trip id="veh33" type="veh_passenger" depart="29.70" departLane="best" from="-436943773#2" to="5676673#2"/>
    <trip id="veh34" type="veh_passenger" depart="30.60" departLane="best" from="5634388#10" to="-5619430#1"/>
    <trip id="veh37" type="veh_passenger" depart="33.30" departLane="best" departSpeed="max" from="-5587369#41" to="-5587369#24"/>
    <trip id="veh38" type="veh_passenger" depart="34.20" departLane="best" from="380824599#2" to="-5598483"/>
    <trip id="veh39" type="veh_passenger" depart="35.10" departLane="best" from="395481419" to="5657755"/>
    <trip id="veh40" type="veh_passenger" depart="36.00" departLane="best" from="-5641134#0" to="-533573774#0"/>
    <trip id="veh41" type="veh_passenger" depart="36.90" departLane="best" from="730129556" to="338703891"/>
    <trip id="veh42" type="veh_passenger" depart="37.80" departLane="best" from="-395481526#12" to="-327757111#3"/>
    <trip id="veh44" type="veh_passenger" depart="39.60" departLane="best" from="5597447#0" to="-5679948"/>
    <trip id="veh45" type="veh_passenger" depart="40.50" departLane="best" from="-380915839#1" to="-5646051#0"/>
    <trip id="veh46" type="veh_passenger" depart="41.40" departLane="best" departSpeed="max" from="730129553#0" to="395215594#1"/>
    <trip id="veh47" type="veh_passenger" depart="42.30" departLane="best" departSpeed="max" from="5694819" to="5634388#2"/>
    <trip id="veh48" type="veh_passenger" depart="43.20" departLane="best" from="-264835486#9" to="512810351#2"/>
    <trip id="veh49" type="veh_passenger" depart="44.10" departLane="best" from="436942363#3" to="395471055#5"/>
    <trip id="veh50" type="veh_passenger" depart="45.00" departLane="best" departSpeed="max" from="-5588133" to="436940277#0"/>
    <trip id="veh51" type="veh_passenger" depart="45.90" departLane="best" departSpeed="max" from="-395487087#1" to="-5685971#1"/>
    <trip id="veh52" type="veh_passenger" depart="46.80" departLane="best" departSpeed="max" from="-5673705#3" to="5682035"/>
    <trip id="veh53" type="veh_passenger" depart="47.70" departLane="best" from="5634388#1" to="-5598489"/>
    <trip id="veh55" type="veh_passenger" depart="49.50" departLane="best" from="5647487#3" to="5639635#7"/>
    <trip id="veh56" type="veh_passenger" depart="50.40" departLane="best" departSpeed="max" from="-5606549#3" to="436940273#0"/>
    <trip id="veh57" type="veh_passenger" depart="51.30" departLane="best" from="395490722#4" to="-436910195#4"/>
    <trip id="veh58" type="veh_passenger" depart="52.20" departLane="best" from="536925032#8" to="395473566"/>
    <trip id="veh59" type="veh_passenger" depart="53.10" departLane="best" from="5587369#20" to="395215594#4"/>
    <trip id="veh60" type="veh_passenger" depart="54.00" departLane="best" departSpeed="max" from="-142000395" to="-5624532#0"/>
    <trip id="veh61" type="veh_passenger" depart="54.90" departLane="best" from="-30657041#4" to="5668245#4"/>
    <trip id="veh62" type="veh_passenger" depart="55.80" departLane="best" from="5634388#19" to="5622942#7"/>
    <trip id="veh63" type="veh_passenger" depart="56.70" departLane="best" from="-5610119#6" to="-380824599#3"/>
    <trip id="veh64" type="veh_passenger" depart="57.60" departLane="best" from="5634388#17" to="5679949#1"/>
    <trip id="veh65" type="veh_passenger" depart="58.50" departLane="best" from="-395471055#9" to="30657041#0"/>
    <trip id="veh66" type="veh_passenger" depart="59.40" departLane="best" departSpeed="max" from="-382551678#13" to="5597997#7"/>
    <trip id="veh67" type="veh_passenger" depart="60.30" departLane="best" from="553879436#0" to="-436907118#2"/>
    <trip id="veh68" type="veh_passenger" depart="61.20" departLane="best" from="-5684812#0" to="395481598#1"/>
    <trip id="veh69" type="veh_passenger" depart="62.10" departLane="best" departSpeed="max" from="-5587369#41" to="5639970#2"/>
    <trip id="veh70" type="veh_passenger" depart="63.00" departLane="best" from="-5658139#2" to="-512805518#1"/>
    <trip id="veh71" type="veh_passenger" depart="63.90" departLane="best" from="327757098#4" to="536925034#0"/>
    <trip id="veh72" type="veh_passenger" depart="64.80" departLane="best" from="-436943760#0" to="-5619182#1"/>
    <trip id="veh73" type="veh_passenger" depart="65.70" departLane="best" from="730129548" to="436943498#2"/>
    <trip id="veh74" type="veh_passenger" depart="66.60" departLane="best" from="-5667836#1" to="380915839#1"/>
    <trip id="veh75" type="veh_passenger" depart="67.50" departLane="best" from="-406379334#5" to="-536925032#10"/>
    <trip id="veh76" type="veh_passenger" depart="68.40" departLane="best" from="-5618956#7" to="436907118#4"/>
    <trip id="veh77" type="veh_passenger" depart="69.30" departLane="best" from="-512810351#0" to="-533573774#0"/>
    <trip id="veh78" type="veh_passenger" depart="70.20" departLane="best" departSpeed="max" from="-382551678#13" to="436929551#6"/>
    <trip id="veh79" type="veh_passenger" depart="71.10" departLane="best" from="-512805518#1" to="5661474#0"/>
    <trip id="veh80" type="veh_passenger" depart="72.00" departLane="best" from="5628206#2" to="-382551678#9"/>
    <trip id="veh81" type="veh_passenger" depart="72.90" departLane="best" from="-536925030#4" to="436943737"/>
    <trip id="veh82" type="veh_passenger" depart="73.80" departLane="best" from="-436943777#0" to="-436907118#7"/>
    <trip id="veh83" type="veh_passenger" depart="74.70" departLane="best" from="5668245#16" to="406379334#1"/>
    <trip id="veh84" type="veh_passenger" depart="75.60" departLane="best" departSpeed="max" from="-5684598#8" to="5607057#1"/>
    <trip id="veh85" type="veh_passenger" depart="76.50" departLane="best" from="5602108#2" to="-436943766#0"/>
    <trip id="veh86" type="veh_passenger" depart="77.40" departLane="best" from="-395481527#1" to="-5684808#0"/>
    <trip id="veh87" type="veh_passenger" depart="78.30" departLane="best" from="-5658139#4" to="216982523#2"/>
    <trip id="veh88" type="veh_passenger" depart="79.20" departLane="best" from="436943764#0" to="436943743#0"/>
    <trip id="veh90" type="veh_passenger" depart="81.00" departLane="best" from="-5641525#3" to="-5630803#1"/>
    <trip id="veh91" type="veh_passenger" depart="81.90" departLane="best" from="5628210#1" to="-5587369#36"/>
    <trip id="veh92" type="veh_passenger" depart="82.80" departLane="best" from="-436940970#3" to="-597312446"/>
    <trip id="veh93" type="veh_passenger" depart="83.70" departLane="best" departSpeed="max" from="-5656838" to="-5606535#0"/>
    <trip id="veh94" type="veh_passenger" depart="84.60" departLane="best" from="-5560512#26" to="5668245#18"/>
    <trip id="veh95" type="veh_passenger" depart="85.50" departLane="best" from="327757109#9" to="-327757111#8"/>
    <trip id="veh96" type="veh_passenger" depart="86.40" departLane="best" from="80396784#4" to="5627494#1"/>
    <trip id="veh97" type="veh_passenger" depart="87.30" departLane="best" from="5692949#3" to="5668245#30"/>
    <trip id="veh98" type="veh_passenger" depart="88.20" departLane="best" from="5621023#1" to="-436940272#1"/>
    <trip id="veh99" type="veh_passenger" depart="89.10" departLane="best" from="-5692949#6" to="-512810351#1"/>
    <trip id="veh100" type="veh_passenger" depart="90.00" departLane="best" from="-5641525#0" to="-380824599#4"/>
    <trip id="veh101" type="veh_passenger" depart="90.90" departLane="best" from="-5634388#14" to="692089612#0"/>
    <trip id="veh102" type="veh_passenger" depart="91.80" departLane="best" departSpeed="max" from="-5587369#41" to="5606556#1"/>
    <trip id="veh103" type="veh_passenger" depart="92.70" departLane="best" from="-5674833#3" to="-5679951#1"/>
    <trip id="veh104" type="veh_passenger" depart="93.60" departLane="best" departSpeed="max" from="5682034#0" to="730129553#1"/>
    <trip id="veh105" type="veh_passenger" depart="94.50" departLane="best" from="346583961#2" to="512805518#0"/>
    <trip id="veh106" type="veh_passenger" depart="95.40" departLane="best" from="-436910145#9" to="-5613276#0"/>
    <trip id="veh107" type="veh_passenger" depart="96.30" departLane="best" from="5692949#1" to="436907107"/>
    <trip id="veh108" type="veh_passenger" depart="97.20" departLane="best" departSpeed="max" from="327757100#0" to="5587369#38"/>
    <trip id="veh109" type="veh_passenger" depart="98.10" departLane="best" from="-359234124" to="436907116#0"/>
    <trip id="veh111" type="veh_passenger" depart="99.90" departLane="best" from="-436910173#2" to="5684816#1"/>
    <trip id="veh112" type="veh_passenger" depart="100.80" departLane="best" from="-395215594#6" to="-436943758#0"/>
    <trip id="veh113" type="veh_passenger" depart="101.70" departLane="best" from="395483013" to="436943744#0"/>
    <trip id="veh114" type="veh_passenger" depart="102.60" departLane="best" from="-533573792" to="-436907114#1"/>
    <trip id="veh115" type="veh_passenger" depart="103.50" departLane="best" from="5639639#1" to="-5587369#22"/>
    <trip id="veh116" type="veh_passenger" depart="104.40" departLane="best" from="395483007#2" to="436929514"/>
    <trip id="veh117" type="veh_passenger" depart="105.30" departLane="best" from="-5647487#3" to="436907115#0"/>
    <trip id="veh118" type="veh_passenger" depart="106.20" departLane="best" from="30649113#0" to="5672538#1"/>
    <trip id="veh119" type="veh_passenger" depart="107.10" departLane="best" from="-436943766#1" to="437372909#3"/>
    <trip id="veh121" type="veh_passenger" depart="108.90" departLane="best" from="436931449#3" to="-5615578#0"/>
    <trip id="veh122" type="veh_passenger" depart="109.80" departLane="best" from="-5611866#3" to="5588641"/>
    <trip id="veh124" type="veh_passenger" depart="111.60" departLane="best" from="-382551678#3" to="-512810351#0"/>
    <trip id="veh126" type="veh_passenger" depart="113.40" departLane="best" from="5634388#5" to="5642320#0"/>
    <trip id="veh127" type="veh_passenger" depart="114.30" departLane="best" departSpeed="max" from="-5631352" to="-436910215#4"/>
    <trip id="veh128" type="veh_passenger" depart="115.20" departLane="best" from="5615623#0" to="436943776#1"/>
    <trip id="veh129" type="veh_passenger" depart="116.10" departLane="best" from="406379334#1" to="692089612#4"/>
    <trip id="veh131" type="veh_passenger" depart="117.90" departLane="best" departSpeed="max" from="5607060#0" to="-5615578#0"/>
    <trip id="veh132" type="veh_passenger" depart="118.80" departLane="best" from="436929538#1" to="5674833#3"/>
    <trip id="veh133" type="veh_passenger" depart="119.70" departLane="best" from="-436907118#1" to="-417070132#1"/>
    <trip id="veh134" type="veh_passenger" depart="120.60" departLane="best" from="-395484767#1" to="395483017#2"/>
    <trip id="veh135" type="veh_passenger" depart="121.50" departLane="best" from="-5591697#0" to="436910194#0"/>
    <trip id="veh136" type="veh_passenger" depart="122.40" departLane="best" from="436943752#0" to="-436943783#4"/>
    <trip id="veh137" type="veh_passenger" depart="123.30" departLane="best" from="436907147#0" to="-5598490#0"/>
    <trip id="veh138" type="veh_passenger" depart="124.20" departLane="best" departSpeed="max" from="-5694821" to="5661474#0"/>
    <trip id="veh139" type="veh_passenger" depart="125.10" departLane="best" from="5619430#4" to="-395481527#2"/>
    <trip id="veh140" type="veh_passenger" depart="126.00" departLane="best" from="-5658139#4" to="-5603698#1"/>
    <trip id="veh141" type="veh_passenger" depart="126.90" departLane="best" departSpeed="max" from="-221570310#1" to="5601057#1"/>
    <trip id="veh142" type="veh_passenger" depart="127.80" departLane="best" from="436910143#0" to="-5597997#5"/>
    <trip id="veh143" type="veh_passenger" depart="128.70" departLane="best" from="436943778#1" to="395483007#1"/>
    <trip id="veh144" type="veh_passenger" depart="129.60" departLane="best" departSpeed="max" from="-5658882" to="-305492832#0"/>
    <trip id="veh145" type="veh_passenger" depart="130.50" departLane="best" from="-382551678#6" to="5644690#4"/>
    <trip id="veh146" type="veh_passenger" depart="131.40" departLane="best" from="5644720#1" to="395481527#10"/>
    <trip id="veh147" type="veh_passenger" depart="132.30" departLane="best" departSpeed="max" from="5616774#0" to="436907113#0"/>
    <trip id="veh148" type="veh_passenger" depart="133.20" departLane="best" from="-436910145#1" to="-436907118#10"/>
    <trip id="veh149" type="veh_passenger" depart="134.10" departLane="best" from="-5610123" to="5658139#4"/>
    <trip id="veh150" type="veh_passenger" depart="135.00" departLane="best" from="5598490#1" to="5634388#2"/>
    <trip id="veh151" type="veh_passenger" depart="135.90" departLane="best" from="5642320#2" to="-437372909#8"/>
    <trip id="veh152" type="veh_passenger" depart="136.80" departLane="best" from="-5560512#24" to="-395487080#9"/>
    <trip id="veh153" type="veh_passenger" depart="137.70" departLane="best" from="5587369#3" to="5644707#1"/>
    <trip id="veh154" type="veh_passenger" depart="138.60" departLane="best" departSpeed="max" from="-5643350#1" to="436929517#1"/>
    <trip id="veh155" type="veh_passenger" depart="139.50" departLane="best" from="-436910145#9" to="5668245#42"/>
    <trip id="veh156" type="veh_passenger" depart="140.40" departLane="best" from="5630171" to="594831658#1"/>
    <trip id="veh157" type="veh_passenger" depart="141.30" departLane="best" departSpeed="max" from="5606535#0" to="5643120#2"/>
    <trip id="veh158" type="veh_passenger" depart="142.20" departLane="best" from="-327757097#0" to="5560512#27"/>
    <trip id="veh159" type="veh_passenger" depart="143.10" departLane="best" departSpeed="max" from="-5616780#1" to="5668245#44"/>
    <trip id="veh160" type="veh_passenger" depart="144.00" departLane="best" from="5600288#20" to="5635238#0"/>
    <trip id="veh161" type="veh_passenger" depart="144.90" departLane="best" departSpeed="max" from="5606535#0" to="-5600284#15"/>
    <trip id="veh162" type="veh_passenger" depart="145.80" departLane="best" from="5590095#6" to="-395490723#1"/>
    <trip id="veh163" type="veh_passenger" depart="146.70" departLane="best" from="5631961#5" to="5634388#13"/>
    <trip id="veh164" type="veh_passenger" depart="147.60" departLane="best" from="-437372907" to="5618941#0"/>
    <trip id="veh165" type="veh_passenger" depart="148.50" departLane="best" from="-5677262" to="-5618344"/>
    <trip id="veh166" type="veh_passenger" depart="149.40" departLane="best" departSpeed="max" from="5598489" to="-536925032#3"/>
    <trip id="veh167" type="veh_passenger" depart="150.30" departLane="best" departSpeed="max" from="-318478627#2" to="-436943769#2"/>
    <trip id="veh168" type="veh_passenger" depart="151.20" departLane="best" departSpeed="max" from="-5615623#1" to="5635238#0"/>
    <trip id="veh169" type="veh_passenger" depart="152.10" departLane="best" from="5685975#7" to="-5606546#1"/>
    <trip id="veh170" type="veh_passenger" depart="153.00" departLane="best" from="436910148#0" to="-5663743#0"/>
    <trip id="veh171" type="veh_passenger" depart="153.90" departLane="best" from="600885050#1" to="395471055#18"/>
    <trip id="veh172" type="veh_passenger" depart="154.80" departLane="best" from="5668245#31" to="-417070132#0"/>
    <trip id="veh173" type="veh_passenger" depart="155.70" departLane="best" departSpeed="max" from="5694819" to="-436943498#0"/>
    <trip id="veh174" type="veh_passenger" depart="156.60" departLane="best" from="5684810#2" to="-5600278#1"/>
    <trip id="veh175" type="veh_passenger" depart="157.50" departLane="best" from="-395487080#2" to="-5685971#0"/>
    <trip id="veh176" type="veh_passenger" depart="158.40" departLane="best" from="436943762#1" to="-5619185#1"/>
    <trip id="veh177" type="veh_passenger" depart="159.30" departLane="best" from="395488327#6" to="350662665"/>
    <trip id="veh178" type="veh_passenger" depart="160.20" departLane="best" from="-5634388#4" to="406379830"/>
    <trip id="veh179" type="veh_passenger" depart="161.10" departLane="best" from="-5560522#3" to="436943781"/>
    <trip id="veh180" type="veh_passenger" depart="162.00" departLane="best" departSpeed="max" from="-216982499" to="5668245#29"/>
    <trip id="veh181" type="veh_passenger" depart="162.90" departLane="best" from="327757098#2" to="512806902"/>
    <trip id="veh182" type="veh_passenger" depart="163.80" departLane="best" from="436943779#0" to="436943739"/>
    <trip id="veh183" type="veh_passenger" depart="164.70" departLane="best" from="-5630801#0" to="-382551678#7"/>
    <trip id="veh184" type="veh_passenger" depart="165.60" departLane="best" from="436929548#2" to="-5628210#1"/>
    <trip id="veh185" type="veh_passenger" depart="166.50" departLane="best" from="-5611865#1" to="5630801#17"/>
    <trip id="veh186" type="veh_passenger" depart="167.40" departLane="best" from="436943753#1" to="-5615578#2"/>
    <trip id="veh187" type="veh_passenger" depart="168.30" departLane="best" from="-5611621#0" to="-5668245#0"/>
    <trip id="veh188" type="veh_passenger" depart="169.20" departLane="best" from="-5641525#2" to="-5611866#0"/>
    <trip id="veh189" type="veh_passenger" depart="170.10" departLane="best" from="-436907114#1" to="-5676673#2"/>
    <trip id="veh190" type="veh_passenger" depart="171.00" departLane="best" from="5668245#36" to="436943746#0"/>
    <trip id="veh191" type="veh_passenger" depart="171.90" departLane="best" from="5644694#1" to="436929498"/>
    <trip id="veh192" type="veh_passenger" depart="172.80" departLane="best" from="-5607057#1" to="395481528"/>
    <trip id="veh193" type="veh_passenger" depart="173.70" departLane="best" departSpeed="max" from="-142000395" to="-5610110#2"/>
    <trip id="veh194" type="veh_passenger" depart="174.60" departLane="best" from="-5661478#1" to="436907109#0"/>
    <trip id="veh195" type="veh_passenger" depart="175.50" departLane="best" from="436929497" to="142000395"/>
    <trip id="veh196" type="veh_passenger" depart="176.40" departLane="best" departSpeed="max" from="-5668244#1" to="-512810351#1"/>
    <trip id="veh197" type="veh_passenger" depart="177.30" departLane="best" departSpeed="max" from="-5684598#8" to="5658820#0"/>
    <trip id="veh198" type="veh_passenger" depart="178.20" departLane="best" from="5598490#0" to="-436940280#1"/>
    <trip id="veh199" type="veh_passenger" depart="179.10" departLane="best" from="-395471055#4" to="380824599#2"/>
    <trip id="veh200" type="veh_passenger" depart="180.00" departLane="best" from="436907131#0" to="-5630695#1"/>
    <trip id="veh201" type="veh_passenger" depart="180.90" departLane="best" departSpeed="max" from="5609517#0" to="5588133"/>
    <trip id="veh202" type="veh_passenger" depart="181.80" departLane="best" from="436940272#0" to="-536925032#10"/>
    <trip id="veh203" type="veh_passenger" depart="182.70" departLane="best" from="-436943758#0" to="-327757097#7"/>
    <trip id="veh204" type="veh_passenger" depart="183.60" departLane="best" from="-536925037#1" to="271529519#2"/>
    <trip id="veh205" type="veh_passenger" depart="184.50" departLane="best" from="5621028#2" to="-395215594#3"/>
    <trip id="veh206" type="veh_passenger" depart="185.40" departLane="best" from="-5646204#16" to="436929551#2"/>
    <trip id="veh207" type="veh_passenger" depart="186.30" departLane="best" from="-436943498#2" to="436943766#1"/>
    <trip id="veh208" type="veh_passenger" depart="187.20" departLane="best" from="-594831658#1" to="-5587369#1"/>
    <trip id="veh209" type="veh_passenger" depart="188.10" departLane="best" from="436929502#0" to="-264835486#7"/>
    <trip id="veh210" type="veh_passenger" depart="189.00" departLane="best" from="512805518#1" to="5600288#5"/>
    <trip id="veh211" type="veh_passenger" depart="189.90" departLane="best" from="-395483153#3" to="-5682032#1"/>
    <trip id="veh212" type="veh_passenger" depart="190.80" departLane="best" departSpeed="max" from="-436931449#4" to="5684807#1"/>
    <trip id="veh213" type="veh_passenger" depart="191.70" departLane="best" from="264835486#7" to="-327757111#7"/>
    <trip id="veh214" type="veh_passenger" depart="192.60" departLane="best" from="-5560512#22" to="5630801#2"/>
    <trip id="veh216" type="veh_passenger" depart="194.40" departLane="best" from="436929551#6" to="692089613#1"/>
    <trip id="veh217" type="veh_passenger" depart="195.30" departLane="best" from="395483017#1" to="5680156"/>
    <trip id="veh218" type="veh_passenger" depart="196.20" departLane="best" from="5639970#1" to="436910227#0"/>
    <trip id="veh219" type="veh_passenger" depart="197.10" departLane="best" from="436943753#0" to="327757111#1"/>
    <trip id="veh220" type="veh_passenger" depart="198.00" departLane="best" from="5613896#1" to="395481527#9"/>
    <trip id="veh221" type="veh_passenger" depart="198.90" departLane="best" from="5641525#3" to="5587369#13"/>
    <trip id="veh222" type="veh_passenger" depart="199.80" departLane="best" from="-5684808#1" to="-5595008"/>
    <trip id="veh223" type="veh_passenger" depart="200.70" departLane="best" from="-5560512#1" to="436940271#0"/>
    <trip id="veh224" type="veh_passenger" depart="201.60" departLane="best" from="553879436#0" to="382551678#11"/>
    <trip id="veh225" type="veh_passenger" depart="202.50" departLane="best" from="436907117#0" to="-5602108#0"/>
    <trip id="veh226" type="veh_passenger" depart="203.40" departLane="best" from="-395215594#0" to="-5609517#0"/>
    <trip id="veh227" type="veh_passenger" depart="204.30" departLane="best" from="-5591438#0" to="-5621170#4"/>
    <trip id="veh228" type="veh_passenger" depart="205.20" departLane="best" departSpeed="max" from="327757100#0" to="-436907148#3"/>
    <trip id="veh229" type="veh_passenger" depart="206.10" departLane="best" from="-512810351#2" to="436943762#1"/>
    <trip id="veh230" type="veh_passenger" depart="207.00" departLane="best" from="436943741#0" to="-382551678#10"/>
    <trip id="veh231" type="veh_passenger" depart="207.90" departLane="best" from="-5644694#0" to="395481526#13"/>
    <trip id="veh232" type="veh_passenger" depart="208.80" departLane="best" from="-5646204#24" to="-437372909#1"/>
    <trip id="veh234" type="veh_passenger" depart="210.60" departLane="best" from="395481417#2" to="436943766#0"/>
    <trip id="veh235" type="veh_passenger" depart="211.50" departLane="best" from="5627487#0" to="5600284#17"/>
    <trip id="veh236" type="veh_passenger" depart="212.40" departLane="best" from="-5634388#17" to="-264835486#7"/>
    <trip id="veh237" type="veh_passenger" depart="213.30" departLane="best" from="-5627479#1" to="5590088"/>
    <trip id="veh238" type="veh_passenger" depart="214.20" departLane="best" from="5622942#1" to="5682035"/>
    <trip id="veh239" type="veh_passenger" depart="215.10" departLane="best" from="-5647487#2" to="5587369#35"/>
    <trip id="veh240" type="veh_passenger" depart="216.00" departLane="best" from="327757102#7" to="436910173#0"/>
    <trip id="veh241" type="veh_passenger" depart="216.90" departLane="best" from="-436943783#4" to="-533573774#0"/>
    <trip id="veh242" type="veh_passenger" depart="217.80" departLane="best" from="-5666920#0" to="-327757098#5"/>
    <trip id="veh243" type="veh_passenger" depart="218.70" departLane="best" from="-5618952#6" to="436943748#0"/>
    <trip id="veh244" type="veh_passenger" depart="219.60" departLane="best" from="-5642320#3" to="-436931449#3"/>
    <trip id="veh245" type="veh_passenger" depart="220.50" departLane="best" from="-5682032#9" to="-436907118#10"/>
    <trip id="veh246" type="veh_passenger" depart="221.40" departLane="best" from="436907110#0" to="-327757098#1"/>
    <trip id="veh247" type="veh_passenger" depart="222.30" departLane="best" from="-5639631#6" to="395488327#10"/>
    <trip id="veh248" type="veh_passenger" depart="223.20" departLane="best" from="-327757097#3" to="436940280#2"/>
    <trip id="veh249" type="veh_passenger" depart="224.10" departLane="best" from="-436907118#11" to="-730129555#1"/>
    <trip id="veh250" type="veh_passenger" depart="225.00" departLane="best" from="-436943774#1" to="-5628202#0"/>
    <trip id="veh251" type="veh_passenger" depart="225.90" departLane="best" from="536925032#14" to="-5644690#4"/>
    <trip id="veh252" type="veh_passenger" depart="226.80" departLane="best" from="512810351#0" to="562354284#0"/>
    <trip id="veh253" type="veh_passenger" depart="227.70" departLane="best" departSpeed="max" from="-5560513" to="-395481417#0"/>
    <trip id="veh254" type="veh_passenger" depart="228.60" departLane="best" from="-30657041#3" to="395473566"/>
    <trip id="veh255" type="veh_passenger" depart="229.50" departLane="best" from="92288453#2" to="-5634388#17"/>