<?xml version="1.0" encoding="UTF-8"?>
<additional>
    <tlLogic id="2300216541" type="static" programID="0" offset="0">
        <phase duration="82" state="GGGG" minDur="5" maxDur="50"/>
        <phase duration="3"  state="yyyy"/>
        <phase duration="5"  state="rrrr"/>
    </tlLogic>
    <tlLogic id="4084525376" type="static" programID="0" offset="0">
        <phase duration="31" state="GGGGgrrrrrrGGGGggrrrrrr" minDur="6" maxDur="50"/>
        <phase duration="4"  state="yyyygrrrrrryyyyggrrrrrr"/>
        <phase duration="6"  state="rrrrGrrrrrrrrrrGGrrrrrr" minDur="6" maxDur="50"/>
        <phase duration="4"  state="rrrryrrrrrrrrrryyrrrrrr"/>
        <phase duration="31" state="rrrrrGGGgggrrrrrrGGGGgg" minDur="7" maxDur="50"/>
        <phase duration="4"  state="rrrrryyygggrrrrrryyyygg"/>
        <phase duration="6"  state="rrrrrrrrGGGrrrrrrrrrrGG" minDur="7" maxDur="50"/>
        <phase duration="4"  state="rrrrrrrryyyrrrrrrrrrryy"/>
    </tlLogic>
    <tlLogic id="41190746" type="static" programID="0" offset="0">
        <phase duration="33" state="GGGGrrrrrrGGGrrrrrr" minDur="13" maxDur="50"/>
        <phase duration="6"  state="yyyyrrrrrryyyrrrrrr"/>
        <phase duration="6"  state="rrrrGGrrrrrrrGGrrrr" minDur="13" maxDur="50"/>
        <phase duration="6"  state="rrrryyrrrrrrryyrrrr"/>
        <phase duration="33" state="rrrrrrGGggrrrrrGGgg" minDur="5" maxDur="50"/>
        <phase duration="6"  state="rrrrrryyyyrrrrryyyy"/>
    </tlLogic>
    <tlLogic id="41190824" type="static" programID="0" offset="0">
        <phase duration="29" state="GGGggrrrrGGGggrrrr" minDur="7" maxDur="50"/>
        <phase duration="5"  state="yyyggrrrryyyggrrrr"/>
        <phase duration="6"  state="rrrGGrrrrrrrGGrrrr" minDur="7" maxDur="50"/>
        <phase duration="5"  state="rrryyrrrrrrryyrrrr"/>
        <phase duration="29" state="rrrrrGGrrrrrrrGGgg" minDur="10" maxDur="50"/>
        <phase duration="5"  state="rrrrryyrrrrrrryygg"/>
        <phase duration="6"  state="rrrrrrrGGrrrrrrrGG" minDur="10" maxDur="50"/>
        <phase duration="5"  state="rrrrrrryyrrrrrrryy"/>
    </tlLogic>
    <tlLogic id="41190831" type="static" programID="0" offset="0">
        <phase duration="35" state="rrrrGGrrrrrrGGrr" minDur="10" maxDur="50"/>
        <phase duration="5"  state="rrrryyrrrrrryyrr"/>
        <phase duration="6"  state="rrrrrrGGrrrrrrGG" minDur="10" maxDur="50"/>
        <phase duration="5"  state="rrrrrryyrrrrrryy"/>
        <phase duration="34" state="GGggrrrrGGggrrrr" minDur="10" maxDur="50"/>
        <phase duration="5"  state="yyyyrrrryyyyrrrr"/>
    </tlLogic>
    <tlLogic id="41190841" type="static" programID="0" offset="0">
        <phase duration="29" state="GGGGggrrrrGGGGggrrrr" minDur="7" maxDur="50"/>
        <phase duration="5"  state="yyyyggrrrryyyyggrrrr"/>
        <phase duration="6"  state="rrrrGGrrrrrrrrGGrrrr" minDur="7" maxDur="50"/>
        <phase duration="5"  state="rrrryyrrrrrrrryyrrrr"/>
        <phase duration="29" state="rrrrrrGGggrrrrrrGGrr" minDur="10" maxDur="50"/>
        <phase duration="5"  state="rrrrrryyggrrrrrryyrr"/>
        <phase duration="6"  state="rrrrrrrrGGrrrrrrrrGG" minDur="10" maxDur="50"/>
        <phase duration="5"  state="rrrrrrrryyrrrrrrrryy"/>
    </tlLogic>
    <tlLogic id="41493623" type="static" programID="0" offset="0">
        <phase duration="33" state="GGGrrrrrrGGGrrrrrr" minDur="13" maxDur="50"/>
        <phase duration="6"  state="yyyrrrrrryyyrrrrrr"/>
        <phase duration="6"  state="rrrGGrrrrrrrGGrrrr" minDur="13" maxDur="50"/>
        <phase duration="6"  state="rrryyrrrrrrryyrrrr"/>
        <phase duration="33" state="rrrrrGGggrrrrrGGgg" minDur="5" maxDur="50"/>
        <phase duration="6"  state="rrrrryyyyrrrrryyyy"/>
    </tlLogic>
    <tlLogic id="41495407" type="static" programID="0" offset="0">
        <phase duration="33" state="rrrrGGGGrrrrrrGGGrr" minDur="13" maxDur="50"/>
        <phase duration="6"  state="rrrryyyyrrrrrryyyrr"/>
        <phase duration="6"  state="rrrrrrrrGGrrrrrrrGG" minDur="13" maxDur="50"/>
        <phase duration="6"  state="rrrrrrrryyrrrrrrryy"/>
        <phase duration="33" state="GGggrrrrrrGGggrrrrr" minDur="5" maxDur="50"/>
        <phase duration="6"  state="yyyyrrrrrryyyyrrrrr"/>
    </tlLogic>
    <tlLogic id="41546641" type="static" programID="0" offset="0">
        <phase duration="40" state="GGGGggrrrrGGGGg" minDur="6" maxDur="50"/>
        <phase duration="5"  state="yyyyyyrrrryyyyy"/>
        <phase duration="40" state="rrrrrrGGGgGrrrr" minDur="10" maxDur="50"/>
        <phase duration="5"  state="rrrrrryyyyyrrrr"/>
    </tlLogic>
    <tlLogic id="41552984" type="static" programID="0" offset="0">
        <phase duration="27" state="rrrrrGGGrrrrrGGGr" minDur="13" maxDur="50"/>
        <phase duration="6"  state="rrrrryyyrrrrryyyr"/>
        <phase duration="6"  state="rrrrrrrrGrrrrrrrG" minDur="13" maxDur="50"/>
        <phase duration="6"  state="rrrrrrrryrrrrrrry"/>
        <phase duration="27" state="GGGGrrrrrGGGrrrrr" minDur="13" maxDur="50"/>
        <phase duration="6"  state="yyyyrrrrryyyrrrrr"/>
        <phase duration="6"  state="rrrrGrrrrrrrGrrrr" minDur="13" maxDur="50"/>
        <phase duration="6"  state="rrrryrrrrrrryrrrr"/>
    </tlLogic>
    <tlLogic id="41552989" type="static" programID="0" offset="0">
        <phase duration="39" state="GGGGggrrrrGGGg" minDur="13" maxDur="50"/>
        <phase duration="6"  state="yyyyyyrrrryyyy"/>
        <phase duration="39" state="rrrrrrGGGgGrrr" minDur="5" maxDur="50"/>
        <phase duration="6"  state="rrrrrryyyyyrrr"/>
    </tlLogic>
    <tlLogic id="41552991" type="static" programID="0" offset="0">
        <phase duration="27" state="rrrrGGGGrrrrrrGGGrr" minDur="13" maxDur="50"/>
        <phase duration="6"  state="rrrryyyyrrrrrryyyrr"/>
        <phase duration="6"  state="rrrrrrrrGGrrrrrrrGG" minDur="13" maxDur="50"/>
        <phase duration="6"  state="rrrrrrrryyrrrrrrryy"/>
        <phase duration="27" state="GGggrrrrrrGGggrrrrr" minDur="6" maxDur="50"/>
        <phase duration="6"  state="yyggrrrrrryyggrrrrr"/>
        <phase duration="6"  state="rrGGrrrrrrrrGGrrrrr" minDur="6" maxDur="50"/>
        <phase duration="6"  state="rryyrrrrrrrryyrrrrr"/>
    </tlLogic>
    <tlLogic id="41573941" type="static" programID="0" offset="0">
        <phase duration="31" state="GGGGgrrrrrrGGGGgrrrrr" minDur="7" maxDur="50"/>
        <phase duration="4"  state="yyyygrrrrrryyyygrrrrr"/>
        <phase duration="6"  state="rrrrGrrrrrrrrrrGrrrrr" minDur="7" maxDur="50"/>
        <phase duration="4"  state="rrrryrrrrrrrrrryrrrrr"/>
        <phase duration="31" state="rrrrrGGGGggrrrrrGGGgg" minDur="7" maxDur="50"/>
        <phase duration="4"  state="rrrrryyyyggrrrrryyygg"/>
        <phase duration="6"  state="rrrrrrrrrGGrrrrrrrrGG" minDur="7" maxDur="50"/>
        <phase duration="4"  state="rrrrrrrrryyrrrrrrrryy"/>
    </tlLogic>
    <tlLogic id="41573960" type="static" programID="0" offset="0">
        <phase duration="38" state="GGGGggrrrrGGGGggrrrr" minDur="6" maxDur="50"/>
        <phase duration="3"  state="yyyyggrrrryyyyggrrrr"/>
        <phase duration="6"  state="rrrrGGrrrrrrrrGGrrrr" minDur="6" maxDur="50"/>
        <phase duration="3"  state="rrrryyrrrrrrrryyrrrr"/>
        <phase duration="37" state="rrrrrrGGggrrrrrrGGgg" minDur="5" maxDur="50"/>
        <phase duration="3"  state="rrrrrryyyyrrrrrryyyy"/>
    </tlLogic>
    <tlLogic id="41573974" type="static" programID="0" offset="0">
        <phase duration="38" state="rrrrGGGGggrrrrGGGGgg" minDur="6" maxDur="50"/>
        <phase duration="3"  state="rrrryyyyggrrrryyyygg"/>
        <phase duration="6"  state="rrrrrrrrGGrrrrrrrrGG" minDur="6" maxDur="50"/>
        <phase duration="3"  state="rrrrrrrryyrrrrrrrryy"/>
        <phase duration="37" state="GGggrrrrrrGGggrrrrrr" minDur="5" maxDur="50"/>
        <phase duration="3"  state="yyyyrrrrrryyyyrrrrrr"/>
    </tlLogic>
    <tlLogic id="41606299" type="static" programID="0" offset="0">
        <phase duration="33" state="rrrrGGGGrrrrrrGGGrr" minDur="13" maxDur="50"/>
        <phase duration="6"  state="rrrryyyyrrrrrryyyrr"/>
        <phase duration="6"  state="rrrrrrrrGGrrrrrrrGG" minDur="13" maxDur="50"/>
        <phase duration="6"  state="rrrrrrrryyrrrrrrryy"/>
        <phase duration="33" state="GGggrrrrrrGGggrrrrr" minDur="5" maxDur="50"/>
        <phase duration="6"  state="yyyyrrrrrryyyyrrrrr"/>
    </tlLogic>
    <tlLogic id="41638549" type="static" programID="0" offset="0">
        <phase duration="33" state="GGGGrrrrrrGGGrrrrrr" minDur="13" maxDur="50"/>
        <phase duration="6"  state="yyyyrrrrrryyyrrrrrr"/>
        <phase duration="6"  state="rrrrGGrrrrrrrGGrrrr" minDur="13" maxDur="50"/>
        <phase duration="6"  state="rrrryyrrrrrrryyrrrr"/>
        <phase duration="33" state="rrrrrrGGggrrrrrGGgg" minDur="5" maxDur="50"/>
        <phase duration="6"  state="rrrrrryyyyrrrrryyyy"/>
    </tlLogic>
    <tlLogic id="41638551" type="static" programID="0" offset="0">
        <phase duration="33" state="rrrrGGGgGGGrr" minDur="13" maxDur="50"/>
        <phase duration="6"  state="rrrryyyyyyyrr"/>
        <phase duration="6"  state="rrrrrrrrGGGGG" minDur="13" maxDur="50"/>
        <phase duration="6"  state="rrrrrrrryyyyy"/>
        <phase duration="33" state="GGGgGrrrrrrrr" minDur="5" maxDur="50"/>
        <phase duration="6"  state="yyyyyrrrrrrrr"/>
    </tlLogic>
    <tlLogic id="41638553" type="static" programID="0" offset="0">
        <phase duration="27" state="rrrrrrGGGGrrrrrrrrGGGGrr" minDur="13" maxDur="50"/>
        <phase duration="6"  state="rrrrrryyyyrrrrrrrryyyyrr"/>
        <phase duration="6"  state="rrrrrrrrrrGGrrrrrrrrrrGG" minDur="13" maxDur="50"/>
        <phase duration="6"  state="rrrrrrrrrryyrrrrrrrrrryy"/>
        <phase duration="27" state="GGGGrrrrrrrrGGGGrrrrrrrr" minDur="13" maxDur="50"/>
        <phase duration="6"  state="yyyyrrrrrrrryyyyrrrrrrrr"/>
        <phase duration="6"  state="rrrrGGrrrrrrrrrrGGrrrrrr" minDur="13" maxDur="50"/>
        <phase duration="6"  state="rrrryyrrrrrrrrrryyrrrrrr"/>
    </tlLogic>
    <tlLogic id="41662620" type="static" programID="0" offset="0">
        <phase duration="36" state="rrrrGGGggrrrrGGGgg" minDur="7" maxDur="50"/>
        <phase duration="4"  state="rrrryyyggrrrryyygg"/>
        <phase duration="6"  state="rrrrrrrGGrrrrrrrGG" minDur="7" maxDur="50"/>
        <phase duration="4"  state="rrrrrrryyrrrrrrryy"/>
        <phase duration="36" state="GGggrrrrrGGggrrrrr" minDur="5" maxDur="50"/>
        <phase duration="4"  state="yyyyrrrrryyyyrrrrr"/>
    </tlLogic>
    <tlLogic id="41812277" type="static" programID="0" offset="0">
        <phase duration="27" state="rrrrGGGGrrrrrrGGGrr" minDur="13" maxDur="50"/>
        <phase duration="6"  state="rrrryyyyrrrrrryyyrr"/>
        <phase duration="6"  state="rrrrrrrrGGrrrrrrrGG" minDur="13" maxDur="50"/>
        <phase duration="6"  state="rrrrrrrryyrrrrrrryy"/>
        <phase duration="27" state="GGrrrrrrrrGGggrrrrr" minDur="10" maxDur="50"/>
        <phase duration="6"  state="yyrrrrrrrryyggrrrrr"/>
        <phase duration="6"  state="rrGGrrrrrrrrGGrrrrr" minDur="10" maxDur="50"/>
        <phase duration="6"  state="rryyrrrrrrrryyrrrrr"/>
    </tlLogic>
    <tlLogic id="41812285" type="static" programID="0" offset="0">
        <phase duration="33" state="rrrrGGGGrrrrrrGGGGrr" minDur="13" maxDur="50"/>
        <phase duration="6"  state="rrrryyyyrrrrrryyyyrr"/>
        <phase duration="6"  state="rrrrrrrrGGrrrrrrrrGG" minDur="13" maxDur="50"/>
        <phase duration="6"  state="rrrrrrrryyrrrrrrrryy"/>
        <phase duration="33" state="GGggrrrrrrGGggrrrrrr" minDur="5" maxDur="50"/>
        <phase duration="6"  state="yyyyrrrrrryyyyrrrrrr"/>
    </tlLogic>
    <tlLogic id="41812304" type="static" programID="0" offset="0">
        <phase duration="33" state="rrrrGGGGrrrrrrGGGrr" minDur="13" maxDur="50"/>
        <phase duration="6"  state="rrrryyyyrrrrrryyyrr"/>
        <phase duration="6"  state="rrrrrrrrGGrrrrrrrGG" minDur="13" maxDur="50"/>
        <phase duration="6"  state="rrrrrrrryyrrrrrrryy"/>
        <phase duration="33" state="GGggrrrrrrGGggrrrrr" minDur="5" maxDur="50"/>
        <phase duration="6"  state="yyyyrrrrrryyyyrrrrr"/>
    </tlLogic>
    <tlLogic id="41883112" type="static" programID="0" offset="0">
        <phase duration="27" state="GGGrrrrrrGGGrrrrrr" minDur="13" maxDur="50"/>
        <phase duration="6"  state="yyyrrrrrryyyrrrrrr"/>
        <phase duration="6"  state="rrrGGrrrrrrrGGrrrr" minDur="13" maxDur="50"/>
        <phase duration="6"  state="rrryyrrrrrrryyrrrr"/>
        <phase duration="27" state="rrrrrGGrrrrrrrGGrr" minDur="10" maxDur="50"/>
        <phase duration="6"  state="rrrrryyrrrrrrryyrr"/>
        <phase duration="6"  state="rrrrrrrGGrrrrrrrGG" minDur="10" maxDur="50"/>
        <phase duration="6"  state="rrrrrrryyrrrrrrryy"/>
    </tlLogic>
    <tlLogic id="cluster_1996293441_41875709" type="static" programID="0" offset="0">
        <phase duration="33" state="rrrrrGGGrrrrrrGGGGrr" minDur="13" maxDur="50"/>
        <phase duration="6"  state="rrrrryyyrrrrrryyyyrr"/>
        <phase duration="6"  state="rrrrrrrrGGrrrrrrrrGG" minDur="13" maxDur="50"/>
        <phase duration="6"  state="rrrrrrrryyrrrrrrrryy"/>
        <phase duration="33" state="GGGggrrrrrGGggrrrrrr" minDur="6" maxDur="50"/>
        <phase duration="6"  state="yyyyyrrrrryyyyrrrrrr"/>
    </tlLogic>
    <tlLogic id="cluster_3983409544_3983421262" type="static" programID="0" offset="0">
        <phase duration="33" state="rrrrGGGGrrrrrrGGGrr" minDur="13" maxDur="50"/>
        <phase duration="6"  state="rrrryyyyrrrrrryyyrr"/>
        <phase duration="6"  state="rrrrrrrrGGrrrrrrrGG" minDur="13" maxDur="50"/>
        <phase duration="6"  state="rrrrrrrryyrrrrrrryy"/>
        <phase duration="33" state="GGggrrrrrrGGggrrrrr" minDur="10" maxDur="50"/>
        <phase duration="6"  state="yyyyrrrrrryyyyrrrrr"/>
    </tlLogic>
    <tlLogic id="cluster_3983483485_41662609" type="static" programID="0" offset="0">
        <phase duration="27" state="GGGrrrrrrGGGGrrrrrr" minDur="13" maxDur="50"/>
        <phase duration="6"  state="yyyrrrrrryyyyrrrrrr"/>
        <phase duration="6"  state="rrrGrrrrrrrrrGrrrrr" minDur="13" maxDur="50"/>
        <phase duration="6"  state="rrryrrrrrrrrryrrrrr"/>
        <phase duration="27" state="rrrrGGGggrrrrrGGGgg" minDur="7" maxDur="50"/>
        <phase duration="6"  state="rrrryyyggrrrrryyygg"/>
        <phase duration="6"  state="rrrrrrrGGrrrrrrrrGG" minDur="7" maxDur="50"/>
        <phase duration="6"  state="rrrrrrryyrrrrrrrryy"/>
    </tlLogic>
    <tlLogic id="cluster_4084510562_4084510567" type="static" programID="0" offset="0">
        <phase duration="29" state="rrrrrrGGGGrrrrrrrGGGrr" minDur="9" maxDur="50"/>
        <phase duration="5"  state="rrrrrryyyyrrrrrrryyyrr"/>
        <phase duration="6"  state="rrrrrrrrrrGGrrrrrrrrGG" minDur="9" maxDur="50"/>
        <phase duration="5"  state="rrrrrrrrrryyrrrrrrrryy"/>
        <phase duration="29" state="GGGGggrrrrrrGGGggrrrrr" minDur="7" maxDur="50"/>
        <phase duration="5"  state="yyyyggrrrrrryyyggrrrrr"/>
        <phase duration="6"  state="rrrrGGrrrrrrrrrGGrrrrr" minDur="7" maxDur="50"/>
        <phase duration="5"  state="rrrryyrrrrrrrrryyrrrrr"/>
    </tlLogic>
    <tlLogic id="cluster_4084510563_41883123" type="static" programID="0" offset="0">
        <phase duration="29" state="GGGGrrrrrrGGGGrrrrrr" minDur="9" maxDur="50"/>
        <phase duration="5"  state="yyyyrrrrrryyyyrrrrrr"/>
        <phase duration="6"  state="rrrrGGrrrrrrrrGGrrrr" minDur="9" maxDur="50"/>
        <phase duration="5"  state="rrrryyrrrrrrrryyrrrr"/>
        <phase duration="29" state="rrrrrrGGrrrrrrrrGGrr" minDur="10" maxDur="50"/>
        <phase duration="5"  state="rrrrrryyrrrrrrrryyrr"/>
        <phase duration="6"  state="rrrrrrrrGGrrrrrrrrGG" minDur="10" maxDur="50"/>
        <phase duration="5"  state="rrrrrrrryyrrrrrrrryy"/>
    </tlLogic>
    <tlLogic id="cluster_4084510569_4084525371_41606272" type="static" programID="0" offset="0">
        <phase duration="35" state="rrrrGGGGrrrrrrGGGGgg" minDur="9" maxDur="50"/>
        <phase duration="5"  state="rrrryyyyrrrrrryyyygg"/>
        <phase duration="6"  state="rrrrrrrrGGrrrrrrrrGG" minDur="9" maxDur="50"/>
        <phase duration="5"  state="rrrrrrrryyrrrrrrrryy"/>
        <phase duration="34" state="GGggrrrrrrGGggrrrrrr" minDur="5" maxDur="50"/>
        <phase duration="5"  state="yyyyrrrrrryyyyrrrrrr"/>
    </tlLogic>
    <tlLogic id="cluster_41582918_6496439524" type="static" programID="0" offset="0">
        <phase duration="39" state="GGGggrrrrGGGg" minDur="13" maxDur="50"/>
        <phase duration="6"  state="yyyyyrrrryyyy"/>
        <phase duration="39" state="rrrrrGGGgGrrr" minDur="5" maxDur="50"/>
        <phase duration="6"  state="rrrrryyyyyrrr"/>
    </tlLogic>
</additional>